/*---------------------------------------------------------------------------*\
| =========                 |                                                 |
| \\      /  F ield         | OpenFOAM: The Open Source CFD Toolbox           |
|  \\    /   O peration     | Version:  2.1.0                                 |
|   \\  /    A nd           | Web:      www.OpenFOAM.org                      |
|    \\/     M anipulation  |                                                 |
\*---------------------------------------------------------------------------*/
Build  : 2.1.0-0bc225064152
Exec   : my_icoFoam
Date   : Mar 18 2012
Time   : 14:15:26
Host   : "calebspc"
PID    : 3611
Case   : /home/caleb/thesis/simulations/rectangle_moving_top
nProcs : 1
sigFpe : Enabling floating point exception trapping (FOAM_SIGFPE).
fileModificationChecking : Monitoring run-time modified files using timeStampMaster
allowSystemOperations : Disallowing user-supplied system call operations

// * * * * * * * * * * * * * * * * * * * * * * * * * * * * * * * * * * * * * //
Create time

Create mesh for time = 0

Reading transportProperties

Reading field p

Reading field U

Reading/calculating face flux field phi

Courant Number mean: 0.00759341 max: 0.08
/*                       |---------------------.
 * This application uses | David L. F. Gaden's |  Please cite me if possible
 *      .----------------|---------------------'  See the README for more info
 *      | equationReader |  Version:    0.5.0
 *      '----------------|
 */

Reading Equations


Starting time loop

Courant Number mean: 0.00759341 max: 0.08
Time = 0.002


Assembling Vectors for non-Inertial Forces



Creating Angular Momentum Vector Components



Creating Angular Acceleration Vector Components



Assembling Vectors



Vector Assembly Complete


DILUPBiCG:  Solving for Ux, Initial residual = 1, Final residual = 4.89717e-07, No Iterations 4
DILUPBiCG:  Solving for Uy, Initial residual = 1, Final residual = 3.55828e-06, No Iterations 2
DICPCG:  Solving for p, Initial residual = 1, Final residual = 9.67905e-07, No Iterations 403
time step continuity errors : sum local = 2.07306e-12, global = 1.0187e-14, cumulative = 1.0187e-14
DICPCG:  Solving for p, Initial residual = 0.22216, Final residual = 9.14049e-07, No Iterations 376
time step continuity errors : sum local = 5.98375e-12, global = -1.25232e-14, cumulative = -2.33622e-15
DICPCG:  Solving for p, Initial residual = 0.039107, Final residual = 9.17385e-07, No Iterations 320
time step continuity errors : sum local = 6.88287e-12, global = 5.12106e-14, cumulative = 4.88744e-14
DICPCG:  Solving for p, Initial residual = 0.0162488, Final residual = 9.47779e-07, No Iterations 305
time step continuity errors : sum local = 7.05114e-12, global = -4.18981e-14, cumulative = 6.97626e-15
DICPCG:  Solving for p, Initial residual = 0.00739281, Final residual = 9.75032e-07, No Iterations 302
time step continuity errors : sum local = 7.23073e-12, global = 1.92999e-14, cumulative = 2.62762e-14
DICPCG:  Solving for p, Initial residual = 0.00396893, Final residual = 9.65811e-07, No Iterations 295
time step continuity errors : sum local = 7.15178e-12, global = -5.23484e-14, cumulative = -2.60723e-14
DICPCG:  Solving for p, Initial residual = 0.00218144, Final residual = 9.78215e-07, No Iterations 288
time step continuity errors : sum local = 7.23839e-12, global = 1.75886e-14, cumulative = -8.48363e-15
DICPCG:  Solving for p, Initial residual = 0.00126153, Final residual = 9.30241e-07, No Iterations 279
time step continuity errors : sum local = 6.88103e-12, global = 1.19878e-13, cumulative = 1.11394e-13
DICPCG:  Solving for p, Initial residual = 0.000733561, Final residual = 9.45574e-07, No Iterations 271
time step continuity errors : sum local = 6.99292e-12, global = 2.80266e-14, cumulative = 1.39421e-13
DICPCG:  Solving for p, Initial residual = 0.000434056, Final residual = 9.547e-07, No Iterations 267
time step continuity errors : sum local = 7.05966e-12, global = 1.54631e-14, cumulative = 1.54884e-13
DICPCG:  Solving for p, Initial residual = 0.000260259, Final residual = 9.25655e-07, No Iterations 122
time step continuity errors : sum local = 6.8444e-12, global = -5.73305e-13, cumulative = -4.18421e-13
DICPCG:  Solving for p, Initial residual = 0.000157009, Final residual = 9.91015e-07, No Iterations 231
time step continuity errors : sum local = 7.32715e-12, global = -1.05392e-13, cumulative = -5.23813e-13
DICPCG:  Solving for p, Initial residual = 9.67017e-05, Final residual = 9.55723e-07, No Iterations 84
time step continuity errors : sum local = 7.06631e-12, global = -8.34936e-14, cumulative = -6.07307e-13
DICPCG:  Solving for p, Initial residual = 5.99261e-05, Final residual = 9.74737e-07, No Iterations 51
time step continuity errors : sum local = 7.2067e-12, global = -1.76357e-13, cumulative = -7.83664e-13
DICPCG:  Solving for p, Initial residual = 3.74854e-05, Final residual = 9.81024e-07, No Iterations 53
time step continuity errors : sum local = 7.25305e-12, global = -2.15364e-13, cumulative = -9.99027e-13
DICPCG:  Solving for p, Initial residual = 2.37424e-05, Final residual = 9.57931e-07, No Iterations 37
time step continuity errors : sum local = 7.08225e-12, global = -2.50751e-13, cumulative = -1.24978e-12
DICPCG:  Solving for p, Initial residual = 1.51876e-05, Final residual = 9.44159e-07, No Iterations 34
time step continuity errors : sum local = 6.98038e-12, global = -2.89131e-13, cumulative = -1.53891e-12
DICPCG:  Solving for p, Initial residual = 9.89971e-06, Final residual = 9.16243e-07, No Iterations 32
time step continuity errors : sum local = 6.77396e-12, global = -3.26345e-13, cumulative = -1.86525e-12
DICPCG:  Solving for p, Initial residual = 6.38144e-06, Final residual = 9.75751e-07, No Iterations 28
time step continuity errors : sum local = 7.2139e-12, global = -3.6186e-13, cumulative = -2.22711e-12
DICPCG:  Solving for p, Initial residual = 4.54461e-06, Final residual = 8.86786e-07, No Iterations 21
time step continuity errors : sum local = 6.55616e-12, global = -3.89596e-13, cumulative = -2.61671e-12
DICPCG:  Solving for p, Initial residual = 3.04241e-06, Final residual = 9.53258e-07, No Iterations 8
time step continuity errors : sum local = 7.04759e-12, global = -3.94056e-13, cumulative = -3.01077e-12
DICPCG:  Solving for p, Initial residual = 2.34536e-06, Final residual = 9.69217e-07, No Iterations 19
time step continuity errors : sum local = 7.16557e-12, global = -4.20943e-13, cumulative = -3.43171e-12
DICPCG:  Solving for p, Initial residual = 1.9099e-06, Final residual = 9.1732e-07, No Iterations 4
time step continuity errors : sum local = 6.78188e-12, global = -4.22445e-13, cumulative = -3.85415e-12
DICPCG:  Solving for p, Initial residual = 1.08062e-06, Final residual = 8.6657e-07, No Iterations 1
time step continuity errors : sum local = 6.40668e-12, global = -4.22731e-13, cumulative = -4.27689e-12
DICPCG:  Solving for p, Initial residual = 1.25398e-06, Final residual = 9.59457e-07, No Iterations 3
time step continuity errors : sum local = 7.09341e-12, global = -4.24464e-13, cumulative = -4.70135e-12
DICPCG:  Solving for p, Initial residual = 1.03711e-06, Final residual = 7.86311e-07, No Iterations 2
time step continuity errors : sum local = 5.81332e-12, global = -4.24923e-13, cumulative = -5.12627e-12
DICPCG:  Solving for p, Initial residual = 1.0752e-06, Final residual = 9.91501e-07, No Iterations 1
time step continuity errors : sum local = 7.33031e-12, global = -4.25071e-13, cumulative = -5.55134e-12
DICPCG:  Solving for p, Initial residual = 1.20791e-06, Final residual = 6.89491e-07, No Iterations 1
time step continuity errors : sum local = 5.09751e-12, global = -4.25201e-13, cumulative = -5.97654e-12
DICPCG:  Solving for p, Initial residual = 7.5924e-07, Final residual = 7.5924e-07, No Iterations 0
time step continuity errors : sum local = 5.61317e-12, global = -4.25201e-13, cumulative = -6.40175e-12
DICPCG:  Solving for p, Initial residual = 7.7054e-07, Final residual = 7.7054e-07, No Iterations 0
time step continuity errors : sum local = 5.69672e-12, global = -4.25201e-13, cumulative = -6.82695e-12
ExecutionTime = 31.03 s  ClockTime = 37 s

forceCoeffs output:
    Cd = 313.286
    Cl = -130.283
    Cm = 0.033798

Courant Number mean: 0.00773319 max: 0.48931
Time = 0.004


Assembling Vectors for non-Inertial Forces



Creating Angular Momentum Vector Components



Creating Angular Acceleration Vector Components



Assembling Vectors



Vector Assembly Complete


DILUPBiCG:  Solving for Ux, Initial residual = 0.153539, Final residual = 3.08185e-06, No Iterations 2
DILUPBiCG:  Solving for Uy, Initial residual = 0.742115, Final residual = 2.08602e-06, No Iterations 2
DICPCG:  Solving for p, Initial residual = 0.114736, Final residual = 9.94363e-07, No Iterations 367
time step continuity errors : sum local = 7.86091e-12, global = 3.27296e-15, cumulative = -6.82367e-12
DICPCG:  Solving for p, Initial residual = 0.0493358, Final residual = 9.8794e-07, No Iterations 342
time step continuity errors : sum local = 7.44685e-12, global = -4.71146e-14, cumulative = -6.87079e-12
DICPCG:  Solving for p, Initial residual = 0.00942223, Final residual = 9.97608e-07, No Iterations 282
time step continuity errors : sum local = 7.25452e-12, global = -1.32797e-13, cumulative = -7.00359e-12
DICPCG:  Solving for p, Initial residual = 0.00340334, Final residual = 9.00246e-07, No Iterations 259
time step continuity errors : sum local = 6.54176e-12, global = 3.2215e-14, cumulative = -6.97137e-12
DICPCG:  Solving for p, Initial residual = 0.00131382, Final residual = 9.50016e-07, No Iterations 254
time step continuity errors : sum local = 6.9041e-12, global = 3.11725e-14, cumulative = -6.9402e-12
DICPCG:  Solving for p, Initial residual = 0.000778894, Final residual = 9.40557e-07, No Iterations 246
time step continuity errors : sum local = 6.83561e-12, global = -3.47397e-14, cumulative = -6.97494e-12
DICPCG:  Solving for p, Initial residual = 0.000377717, Final residual = 9.54429e-07, No Iterations 238
time step continuity errors : sum local = 6.93683e-12, global = -8.78342e-15, cumulative = -6.98372e-12
DICPCG:  Solving for p, Initial residual = 0.000239804, Final residual = 9.88643e-07, No Iterations 229
time step continuity errors : sum local = 7.18566e-12, global = -1.33161e-13, cumulative = -7.11688e-12
DICPCG:  Solving for p, Initial residual = 0.000127739, Final residual = 9.41283e-07, No Iterations 212
time step continuity errors : sum local = 6.84158e-12, global = -1.23329e-13, cumulative = -7.24021e-12
DICPCG:  Solving for p, Initial residual = 8.11166e-05, Final residual = 9.51718e-07, No Iterations 135
time step continuity errors : sum local = 6.9175e-12, global = 1.07804e-12, cumulative = -6.16217e-12
DICPCG:  Solving for p, Initial residual = 4.6482e-05, Final residual = 9.7549e-07, No Iterations 201
time step continuity errors : sum local = 7.09036e-12, global = 3.20654e-14, cumulative = -6.13011e-12
DICPCG:  Solving for p, Initial residual = 2.94679e-05, Final residual = 9.81996e-07, No Iterations 86
time step continuity errors : sum local = 7.13766e-12, global = 5.70344e-14, cumulative = -6.07307e-12
DICPCG:  Solving for p, Initial residual = 1.79929e-05, Final residual = 9.76535e-07, No Iterations 51
time step continuity errors : sum local = 7.098e-12, global = 2.11036e-13, cumulative = -5.86204e-12
DICPCG:  Solving for p, Initial residual = 1.15323e-05, Final residual = 9.83011e-07, No Iterations 82
time step continuity errors : sum local = 7.14509e-12, global = 5.67037e-13, cumulative = -5.295e-12
DICPCG:  Solving for p, Initial residual = 7.50397e-06, Final residual = 9.04199e-07, No Iterations 36
time step continuity errors : sum local = 6.57224e-12, global = 6.67501e-13, cumulative = -4.6275e-12
DICPCG:  Solving for p, Initial residual = 4.92696e-06, Final residual = 9.11014e-07, No Iterations 33
time step continuity errors : sum local = 6.62179e-12, global = 6.98228e-13, cumulative = -3.92927e-12
DICPCG:  Solving for p, Initial residual = 3.41811e-06, Final residual = 9.43419e-07, No Iterations 31
time step continuity errors : sum local = 6.85732e-12, global = 7.11547e-13, cumulative = -3.21772e-12
DICPCG:  Solving for p, Initial residual = 2.53287e-06, Final residual = 9.34232e-07, No Iterations 25
time step continuity errors : sum local = 6.79055e-12, global = 7.23428e-13, cumulative = -2.49429e-12
DICPCG:  Solving for p, Initial residual = 1.92395e-06, Final residual = 9.96009e-07, No Iterations 20
time step continuity errors : sum local = 7.23959e-12, global = 7.347e-13, cumulative = -1.75959e-12
DICPCG:  Solving for p, Initial residual = 1.6764e-06, Final residual = 9.68977e-07, No Iterations 7
time step continuity errors : sum local = 7.0431e-12, global = 7.36608e-13, cumulative = -1.02299e-12
DICPCG:  Solving for p, Initial residual = 1.3042e-06, Final residual = 9.49851e-07, No Iterations 17
time step continuity errors : sum local = 6.90408e-12, global = 7.47985e-13, cumulative = -2.75001e-13
DICPCG:  Solving for p, Initial residual = 1.36908e-06, Final residual = 9.8977e-07, No Iterations 1
time step continuity errors : sum local = 7.19424e-12, global = 7.4825e-13, cumulative = 4.73249e-13
DICPCG:  Solving for p, Initial residual = 1.17613e-06, Final residual = 9.27487e-07, No Iterations 6
time step continuity errors : sum local = 6.74153e-12, global = 7.49939e-13, cumulative = 1.22319e-12
DICPCG:  Solving for p, Initial residual = 1.09996e-06, Final residual = 9.98062e-07, No Iterations 1
time step continuity errors : sum local = 7.25451e-12, global = 7.50041e-13, cumulative = 1.97323e-12
DICPCG:  Solving for p, Initial residual = 1.09553e-06, Final residual = 9.6807e-07, No Iterations 1
time step continuity errors : sum local = 7.03651e-12, global = 7.50142e-13, cumulative = 2.72337e-12
DICPCG:  Solving for p, Initial residual = 1.0249e-06, Final residual = 9.88708e-07, No Iterations 1
time step continuity errors : sum local = 7.18651e-12, global = 7.50223e-13, cumulative = 3.47359e-12
DICPCG:  Solving for p, Initial residual = 1.01585e-06, Final residual = 9.14654e-07, No Iterations 1
time step continuity errors : sum local = 6.64825e-12, global = 7.50303e-13, cumulative = 4.2239e-12
DICPCG:  Solving for p, Initial residual = 9.2707e-07, Final residual = 9.2707e-07, No Iterations 0
time step continuity errors : sum local = 6.7385e-12, global = 7.50303e-13, cumulative = 4.9742e-12
DICPCG:  Solving for p, Initial residual = 9.33579e-07, Final residual = 9.33579e-07, No Iterations 0
time step continuity errors : sum local = 6.78581e-12, global = 7.50303e-13, cumulative = 5.7245e-12
DICPCG:  Solving for p, Initial residual = 9.38761e-07, Final residual = 9.38761e-07, No Iterations 0
time step continuity errors : sum local = 6.82348e-12, global = 7.50303e-13, cumulative = 6.47481e-12
ExecutionTime = 56.23 s  ClockTime = 64 s

forceCoeffs output:
    Cd = 48.9352
    Cl = -131.277
    Cm = 0.176056

Courant Number mean: 0.00785838 max: 0.461549
Time = 0.006


Assembling Vectors for non-Inertial Forces



Creating Angular Momentum Vector Components



Creating Angular Acceleration Vector Components



Assembling Vectors



Vector Assembly Complete


DILUPBiCG:  Solving for Ux, Initial residual = 0.0996849, Final residual = 2.30483e-07, No Iterations 2
DILUPBiCG:  Solving for Uy, Initial residual = 0.586546, Final residual = 3.31799e-07, No Iterations 2
DICPCG:  Solving for p, Initial residual = 0.0704514, Final residual = 8.76171e-07, No Iterations 327
time step continuity errors : sum local = 6.78831e-12, global = 4.83692e-14, cumulative = 6.52317e-12
DICPCG:  Solving for p, Initial residual = 0.00221659, Final residual = 9.22289e-07, No Iterations 175
time step continuity errors : sum local = 7.59204e-12, global = -8.79438e-13, cumulative = 5.64374e-12
DICPCG:  Solving for p, Initial residual = 0.000595242, Final residual = 8.94146e-07, No Iterations 72
time step continuity errors : sum local = 7.36538e-12, global = -9.26368e-13, cumulative = 4.71737e-12
DICPCG:  Solving for p, Initial residual = 0.000208218, Final residual = 9.77547e-07, No Iterations 37
time step continuity errors : sum local = 8.0542e-12, global = -9.15665e-13, cumulative = 3.8017e-12
DICPCG:  Solving for p, Initial residual = 9.05066e-05, Final residual = 9.64336e-07, No Iterations 36
time step continuity errors : sum local = 7.94602e-12, global = -8.79841e-13, cumulative = 2.92186e-12
DICPCG:  Solving for p, Initial residual = 4.38402e-05, Final residual = 9.2757e-07, No Iterations 34
time step continuity errors : sum local = 7.64335e-12, global = -8.46933e-13, cumulative = 2.07493e-12
DICPCG:  Solving for p, Initial residual = 2.23202e-05, Final residual = 9.47666e-07, No Iterations 31
time step continuity errors : sum local = 7.80909e-12, global = -8.12468e-13, cumulative = 1.26246e-12
DICPCG:  Solving for p, Initial residual = 1.191e-05, Final residual = 9.90821e-07, No Iterations 22
time step continuity errors : sum local = 8.16477e-12, global = -7.85083e-13, cumulative = 4.7738e-13
DICPCG:  Solving for p, Initial residual = 6.71469e-06, Final residual = 9.79932e-07, No Iterations 17
time step continuity errors : sum local = 8.07507e-12, global = -7.62427e-13, cumulative = -2.85047e-13
DICPCG:  Solving for p, Initial residual = 4.1394e-06, Final residual = 9.36482e-07, No Iterations 3
time step continuity errors : sum local = 7.71705e-12, global = -7.61435e-13, cumulative = -1.04648e-12
DICPCG:  Solving for p, Initial residual = 2.63563e-06, Final residual = 9.97252e-07, No Iterations 5
time step continuity errors : sum local = 8.21784e-12, global = -7.56929e-13, cumulative = -1.80341e-12
DICPCG:  Solving for p, Initial residual = 2.00504e-06, Final residual = 9.26516e-07, No Iterations 1
time step continuity errors : sum local = 7.63494e-12, global = -7.5761e-13, cumulative = -2.56102e-12
DICPCG:  Solving for p, Initial residual = 1.20336e-06, Final residual = 8.92037e-07, No Iterations 1
time step continuity errors : sum local = 7.35082e-12, global = -7.57685e-13, cumulative = -3.31871e-12
DICPCG:  Solving for p, Initial residual = 9.99822e-07, Final residual = 9.99822e-07, No Iterations 0
time step continuity errors : sum local = 8.23903e-12, global = -7.57685e-13, cumulative = -4.07639e-12
DICPCG:  Solving for p, Initial residual = 9.40408e-07, Final residual = 9.40408e-07, No Iterations 0
time step continuity errors : sum local = 7.74943e-12, global = -7.57685e-13, cumulative = -4.83407e-12
DICPCG:  Solving for p, Initial residual = 1.06608e-06, Final residual = 9.19009e-07, No Iterations 22
time step continuity errors : sum local = 7.57309e-12, global = -7.16637e-13, cumulative = -5.55071e-12
DICPCG:  Solving for p, Initial residual = 1.29976e-06, Final residual = 9.56608e-07, No Iterations 6
time step continuity errors : sum local = 7.88292e-12, global = -7.1296e-13, cumulative = -6.26367e-12
DICPCG:  Solving for p, Initial residual = 1.15392e-06, Final residual = 9.95845e-07, No Iterations 5
time step continuity errors : sum local = 8.20626e-12, global = -7.08569e-13, cumulative = -6.97224e-12
DICPCG:  Solving for p, Initial residual = 1.17988e-06, Final residual = 8.84509e-07, No Iterations 4
time step continuity errors : sum local = 7.2888e-12, global = -7.06791e-13, cumulative = -7.67903e-12
DICPCG:  Solving for p, Initial residual = 1.00609e-06, Final residual = 8.93961e-07, No Iterations 2
time step continuity errors : sum local = 7.36668e-12, global = -7.05195e-13, cumulative = -8.38423e-12
DICPCG:  Solving for p, Initial residual = 1.1343e-06, Final residual = 7.02039e-07, No Iterations 1
time step continuity errors : sum local = 5.78515e-12, global = -7.05927e-13, cumulative = -9.09015e-12
DICPCG:  Solving for p, Initial residual = 8.2533e-07, Final residual = 8.2533e-07, No Iterations 0
time step continuity errors : sum local = 6.80113e-12, global = -7.05927e-13, cumulative = -9.79608e-12
DICPCG:  Solving for p, Initial residual = 9.1404e-07, Final residual = 9.1404e-07, No Iterations 0
time step continuity errors : sum local = 7.53214e-12, global = -7.05927e-13, cumulative = -1.0502e-11
DICPCG:  Solving for p, Initial residual = 9.71504e-07, Final residual = 9.71504e-07, No Iterations 0
time step continuity errors : sum local = 8.00567e-12, global = -7.05927e-13, cumulative = -1.12079e-11
DICPCG:  Solving for p, Initial residual = 1.008e-06, Final residual = 8.00321e-07, No Iterations 1
time step continuity errors : sum local = 6.59504e-12, global = -7.05038e-13, cumulative = -1.1913e-11
DICPCG:  Solving for p, Initial residual = 9.73258e-07, Final residual = 9.73258e-07, No Iterations 0
time step continuity errors : sum local = 8.02013e-12, global = -7.05038e-13, cumulative = -1.2618e-11
DICPCG:  Solving for p, Initial residual = 1.09782e-06, Final residual = 6.13082e-07, No Iterations 1
time step continuity errors : sum local = 5.0521e-12, global = -7.05415e-13, cumulative = -1.33234e-11
DICPCG:  Solving for p, Initial residual = 6.82779e-07, Final residual = 6.82779e-07, No Iterations 0
time step continuity errors : sum local = 5.62644e-12, global = -7.05415e-13, cumulative = -1.40288e-11
DICPCG:  Solving for p, Initial residual = 7.5765e-07, Final residual = 7.5765e-07, No Iterations 0
time step continuity errors : sum local = 6.24341e-12, global = -7.05415e-13, cumulative = -1.47343e-11
DICPCG:  Solving for p, Initial residual = 8.07616e-07, Final residual = 8.07616e-07, No Iterations 0
time step continuity errors : sum local = 6.65516e-12, global = -7.05415e-13, cumulative = -1.54397e-11
ExecutionTime = 65.56 s  ClockTime = 73 s

forceCoeffs output:
    Cd = 35.2348
    Cl = -132.025
    Cm = 0.281457

Courant Number mean: 0.00798399 max: 0.451541
Time = 0.008


Assembling Vectors for non-Inertial Forces



Creating Angular Momentum Vector Components



Creating Angular Acceleration Vector Components



Assembling Vectors



Vector Assembly Complete


DILUPBiCG:  Solving for Ux, Initial residual = 0.0809716, Final residual = 1.02782e-07, No Iterations 2
DILUPBiCG:  Solving for Uy, Initial residual = 0.481907, Final residual = 2.82617e-07, No Iterations 2
DICPCG:  Solving for p, Initial residual = 0.0528224, Final residual = 9.44032e-07, No Iterations 321
time step continuity errors : sum local = 8.18438e-12, global = 1.50904e-13, cumulative = -1.52888e-11
DICPCG:  Solving for p, Initial residual = 0.000893513, Final residual = 9.87241e-07, No Iterations 144
time step continuity errors : sum local = 8.98624e-12, global = -3.10878e-13, cumulative = -1.55996e-11
DICPCG:  Solving for p, Initial residual = 0.000228668, Final residual = 9.96492e-07, No Iterations 56
time step continuity errors : sum local = 9.07416e-12, global = -3.18034e-13, cumulative = -1.59177e-11
DICPCG:  Solving for p, Initial residual = 8.739e-05, Final residual = 9.95901e-07, No Iterations 30
time step continuity errors : sum local = 9.06937e-12, global = -3.35401e-13, cumulative = -1.62531e-11
DICPCG:  Solving for p, Initial residual = 4.19298e-05, Final residual = 9.62008e-07, No Iterations 32
time step continuity errors : sum local = 8.76094e-12, global = -3.62337e-13, cumulative = -1.66154e-11
DICPCG:  Solving for p, Initial residual = 2.11888e-05, Final residual = 9.24321e-07, No Iterations 23
time step continuity errors : sum local = 8.41782e-12, global = -3.67789e-13, cumulative = -1.69832e-11
DICPCG:  Solving for p, Initial residual = 1.13991e-05, Final residual = 9.88323e-07, No Iterations 19
time step continuity errors : sum local = 9.00074e-12, global = -3.72106e-13, cumulative = -1.73553e-11
DICPCG:  Solving for p, Initial residual = 6.43695e-06, Final residual = 8.20118e-07, No Iterations 5
time step continuity errors : sum local = 7.46891e-12, global = -3.70056e-13, cumulative = -1.77254e-11
DICPCG:  Solving for p, Initial residual = 3.89103e-06, Final residual = 9.32489e-07, No Iterations 16
time step continuity errors : sum local = 8.49229e-12, global = -3.74953e-13, cumulative = -1.81003e-11
DICPCG:  Solving for p, Initial residual = 2.67691e-06, Final residual = 7.11303e-07, No Iterations 3
time step continuity errors : sum local = 6.47793e-12, global = -3.73032e-13, cumulative = -1.84734e-11
DICPCG:  Solving for p, Initial residual = 1.68659e-06, Final residual = 7.12886e-07, No Iterations 1
time step continuity errors : sum local = 6.49235e-12, global = -3.70817e-13, cumulative = -1.88442e-11
DICPCG:  Solving for p, Initial residual = 9.24883e-07, Final residual = 9.24883e-07, No Iterations 0
time step continuity errors : sum local = 8.42304e-12, global = -3.70817e-13, cumulative = -1.9215e-11
DICPCG:  Solving for p, Initial residual = 1.01223e-06, Final residual = 6.35763e-07, No Iterations 1
time step continuity errors : sum local = 5.78998e-12, global = -3.70175e-13, cumulative = -1.95852e-11
DICPCG:  Solving for p, Initial residual = 7.21259e-07, Final residual = 7.21259e-07, No Iterations 0
time step continuity errors : sum local = 6.5686e-12, global = -3.70175e-13, cumulative = -1.99553e-11
DICPCG:  Solving for p, Initial residual = 6.63707e-07, Final residual = 6.63707e-07, No Iterations 0
time step continuity errors : sum local = 6.04447e-12, global = -3.70175e-13, cumulative = -2.03255e-11
DICPCG:  Solving for p, Initial residual = 7.31025e-07, Final residual = 7.31025e-07, No Iterations 0
time step continuity errors : sum local = 6.65755e-12, global = -3.70175e-13, cumulative = -2.06957e-11
DICPCG:  Solving for p, Initial residual = 7.16074e-07, Final residual = 7.16074e-07, No Iterations 0
time step continuity errors : sum local = 6.52138e-12, global = -3.70175e-13, cumulative = -2.10659e-11
DICPCG:  Solving for p, Initial residual = 7.4746e-07, Final residual = 7.4746e-07, No Iterations 0
time step continuity errors : sum local = 6.80722e-12, global = -3.70175e-13, cumulative = -2.1436e-11
DICPCG:  Solving for p, Initial residual = 7.42782e-07, Final residual = 7.42782e-07, No Iterations 0
time step continuity errors : sum local = 6.76462e-12, global = -3.70175e-13, cumulative = -2.18062e-11
DICPCG:  Solving for p, Initial residual = 7.5631e-07, Final residual = 7.5631e-07, No Iterations 0
time step continuity errors : sum local = 6.88782e-12, global = -3.70175e-13, cumulative = -2.21764e-11
DICPCG:  Solving for p, Initial residual = 7.54619e-07, Final residual = 7.54619e-07, No Iterations 0
time step continuity errors : sum local = 6.87242e-12, global = -3.70175e-13, cumulative = -2.25466e-11
DICPCG:  Solving for p, Initial residual = 7.60375e-07, Final residual = 7.60375e-07, No Iterations 0
time step continuity errors : sum local = 6.92484e-12, global = -3.70175e-13, cumulative = -2.29167e-11
DICPCG:  Solving for p, Initial residual = 7.59734e-07, Final residual = 7.59734e-07, No Iterations 0
time step continuity errors : sum local = 6.91901e-12, global = -3.70175e-13, cumulative = -2.32869e-11
DICPCG:  Solving for p, Initial residual = 7.62183e-07, Final residual = 7.62183e-07, No Iterations 0
time step continuity errors : sum local = 6.94131e-12, global = -3.70175e-13, cumulative = -2.36571e-11
DICPCG:  Solving for p, Initial residual = 7.61943e-07, Final residual = 7.61943e-07, No Iterations 0
time step continuity errors : sum local = 6.93912e-12, global = -3.70175e-13, cumulative = -2.40273e-11
DICPCG:  Solving for p, Initial residual = 7.62988e-07, Final residual = 7.62988e-07, No Iterations 0
time step continuity errors : sum local = 6.94864e-12, global = -3.70175e-13, cumulative = -2.43974e-11
DICPCG:  Solving for p, Initial residual = 7.629e-07, Final residual = 7.629e-07, No Iterations 0
time step continuity errors : sum local = 6.94784e-12, global = -3.70175e-13, cumulative = -2.47676e-11
DICPCG:  Solving for p, Initial residual = 7.63347e-07, Final residual = 7.63347e-07, No Iterations 0
time step continuity errors : sum local = 6.95191e-12, global = -3.70175e-13, cumulative = -2.51378e-11
DICPCG:  Solving for p, Initial residual = 7.63316e-07, Final residual = 7.63316e-07, No Iterations 0
time step continuity errors : sum local = 6.95163e-12, global = -3.70175e-13, cumulative = -2.5508e-11
DICPCG:  Solving for p, Initial residual = 7.63508e-07, Final residual = 7.63508e-07, No Iterations 0
time step continuity errors : sum local = 6.95338e-12, global = -3.70175e-13, cumulative = -2.58781e-11
ExecutionTime = 73.92 s  ClockTime = 82 s

forceCoeffs output:
    Cd = 28.8579
    Cl = -132.678
    Cm = 0.383698

Courant Number mean: 0.00810987 max: 0.442985
Time = 0.01


Assembling Vectors for non-Inertial Forces



Creating Angular Momentum Vector Components



Creating Angular Acceleration Vector Components



Assembling Vectors



Vector Assembly Complete


DILUPBiCG:  Solving for Ux, Initial residual = 0.068522, Final residual = 6.67066e-08, No Iterations 2
DILUPBiCG:  Solving for Uy, Initial residual = 0.408732, Final residual = 2.48112e-07, No Iterations 2
DICPCG:  Solving for p, Initial residual = 0.0448406, Final residual = 9.24171e-07, No Iterations 317
time step continuity errors : sum local = 8.79205e-12, global = 8.3757e-14, cumulative = -2.57944e-11
DICPCG:  Solving for p, Initial residual = 0.000570981, Final residual = 9.63948e-07, No Iterations 139
time step continuity errors : sum local = 9.56483e-12, global = -1.00371e-13, cumulative = -2.58948e-11
DICPCG:  Solving for p, Initial residual = 0.000139275, Final residual = 9.76089e-07, No Iterations 52
time step continuity errors : sum local = 9.68793e-12, global = -1.44967e-13, cumulative = -2.60397e-11
DICPCG:  Solving for p, Initial residual = 5.47327e-05, Final residual = 9.97886e-07, No Iterations 23
time step continuity errors : sum local = 9.90462e-12, global = -1.17452e-13, cumulative = -2.61572e-11
DICPCG:  Solving for p, Initial residual = 2.70844e-05, Final residual = 9.43118e-07, No Iterations 29
time step continuity errors : sum local = 9.36113e-12, global = -1.31423e-13, cumulative = -2.62886e-11
DICPCG:  Solving for p, Initial residual = 1.40224e-05, Final residual = 9.7e-07, No Iterations 11
time step continuity errors : sum local = 9.62801e-12, global = -1.08846e-13, cumulative = -2.63974e-11
DICPCG:  Solving for p, Initial residual = 7.77173e-06, Final residual = 9.17819e-07, No Iterations 21
time step continuity errors : sum local = 9.11009e-12, global = -1.28732e-13, cumulative = -2.65262e-11
DICPCG:  Solving for p, Initial residual = 4.72519e-06, Final residual = 9.73479e-07, No Iterations 2
time step continuity errors : sum local = 9.66258e-12, global = -1.22598e-13, cumulative = -2.66488e-11
DICPCG:  Solving for p, Initial residual = 3.02357e-06, Final residual = 8.01065e-07, No Iterations 3
time step continuity errors : sum local = 7.95123e-12, global = -1.02365e-13, cumulative = -2.67511e-11
DICPCG:  Solving for p, Initial residual = 1.93061e-06, Final residual = 7.65361e-07, No Iterations 1
time step continuity errors : sum local = 7.59685e-12, global = -9.85001e-14, cumulative = -2.68496e-11
DICPCG:  Solving for p, Initial residual = 1.03029e-06, Final residual = 6.57971e-07, No Iterations 1
time step continuity errors : sum local = 6.53091e-12, global = -9.72972e-14, cumulative = -2.69469e-11
DICPCG:  Solving for p, Initial residual = 8.59384e-07, Final residual = 8.59384e-07, No Iterations 0
time step continuity errors : sum local = 8.5301e-12, global = -9.72972e-14, cumulative = -2.70442e-11
DICPCG:  Solving for p, Initial residual = 7.67077e-07, Final residual = 7.67077e-07, No Iterations 0
time step continuity errors : sum local = 7.61388e-12, global = -9.72972e-14, cumulative = -2.71415e-11
DICPCG:  Solving for p, Initial residual = 9.2599e-07, Final residual = 9.2599e-07, No Iterations 0
time step continuity errors : sum local = 9.19122e-12, global = -9.72972e-14, cumulative = -2.72388e-11
DICPCG:  Solving for p, Initial residual = 9.07586e-07, Final residual = 9.07586e-07, No Iterations 0
time step continuity errors : sum local = 9.00855e-12, global = -9.72972e-14, cumulative = -2.73361e-11
DICPCG:  Solving for p, Initial residual = 9.74858e-07, Final residual = 9.74858e-07, No Iterations 0
time step continuity errors : sum local = 9.67627e-12, global = -9.72972e-14, cumulative = -2.74334e-11
DICPCG:  Solving for p, Initial residual = 9.68905e-07, Final residual = 9.68905e-07, No Iterations 0
time step continuity errors : sum local = 9.61719e-12, global = -9.72972e-14, cumulative = -2.75307e-11
DICPCG:  Solving for p, Initial residual = 9.9702e-07, Final residual = 9.9702e-07, No Iterations 0
time step continuity errors : sum local = 9.89626e-12, global = -9.72972e-14, cumulative = -2.7628e-11
DICPCG:  Solving for p, Initial residual = 9.94827e-07, Final residual = 9.94827e-07, No Iterations 0
time step continuity errors : sum local = 9.87449e-12, global = -9.72972e-14, cumulative = -2.77253e-11
DICPCG:  Solving for p, Initial residual = 1.00658e-06, Final residual = 7.02611e-07, No Iterations 1
time step continuity errors : sum local = 6.974e-12, global = -9.32171e-14, cumulative = -2.78185e-11
DICPCG:  Solving for p, Initial residual = 7.70878e-07, Final residual = 7.70878e-07, No Iterations 0
time step continuity errors : sum local = 7.65161e-12, global = -9.32171e-14, cumulative = -2.79117e-11
DICPCG:  Solving for p, Initial residual = 8.3445e-07, Final residual = 8.3445e-07, No Iterations 0
time step continuity errors : sum local = 8.28261e-12, global = -9.32171e-14, cumulative = -2.8005e-11
DICPCG:  Solving for p, Initial residual = 8.77276e-07, Final residual = 8.77276e-07, No Iterations 0
time step continuity errors : sum local = 8.7077e-12, global = -9.32171e-14, cumulative = -2.80982e-11
DICPCG:  Solving for p, Initial residual = 9.0577e-07, Final residual = 9.0577e-07, No Iterations 0
time step continuity errors : sum local = 8.99052e-12, global = -9.32171e-14, cumulative = -2.81914e-11
DICPCG:  Solving for p, Initial residual = 9.24279e-07, Final residual = 9.24279e-07, No Iterations 0
time step continuity errors : sum local = 9.17424e-12, global = -9.32171e-14, cumulative = -2.82846e-11
DICPCG:  Solving for p, Initial residual = 9.36404e-07, Final residual = 9.36404e-07, No Iterations 0
time step continuity errors : sum local = 9.29459e-12, global = -9.32171e-14, cumulative = -2.83778e-11
DICPCG:  Solving for p, Initial residual = 9.44258e-07, Final residual = 9.44258e-07, No Iterations 0
time step continuity errors : sum local = 9.37255e-12, global = -9.32171e-14, cumulative = -2.8471e-11
DICPCG:  Solving for p, Initial residual = 9.49402e-07, Final residual = 9.49402e-07, No Iterations 0
time step continuity errors : sum local = 9.42361e-12, global = -9.32171e-14, cumulative = -2.85643e-11
DICPCG:  Solving for p, Initial residual = 9.52736e-07, Final residual = 9.52736e-07, No Iterations 0
time step continuity errors : sum local = 9.4567e-12, global = -9.32171e-14, cumulative = -2.86575e-11
DICPCG:  Solving for p, Initial residual = 9.54919e-07, Final residual = 9.54919e-07, No Iterations 0
time step continuity errors : sum local = 9.47837e-12, global = -9.32171e-14, cumulative = -2.87507e-11
ExecutionTime = 82.56 s  ClockTime = 91 s

forceCoeffs output:
    Cd = 25.0349
    Cl = -133.221
    Cm = 0.485132

Courant Number mean: 0.00823595 max: 0.4366
Time = 0.012


Assembling Vectors for non-Inertial Forces



Creating Angular Momentum Vector Components



Creating Angular Acceleration Vector Components



Assembling Vectors



Vector Assembly Complete


DILUPBiCG:  Solving for Ux, Initial residual = 0.0595261, Final residual = 8.03112e-06, No Iterations 1
DILUPBiCG:  Solving for Uy, Initial residual = 0.355024, Final residual = 2.21737e-07, No Iterations 2
DICPCG:  Solving for p, Initial residual = 0.0411618, Final residual = 9.41919e-07, No Iterations 316
time step continuity errors : sum local = 9.73376e-12, global = 7.13148e-14, cumulative = -2.86794e-11
DICPCG:  Solving for p, Initial residual = 0.000440281, Final residual = 9.32367e-07, No Iterations 138
time step continuity errors : sum local = 1.00171e-11, global = -1.2718e-13, cumulative = -2.88066e-11
DICPCG:  Solving for p, Initial residual = 9.86864e-05, Final residual = 9.3835e-07, No Iterations 56
time step continuity errors : sum local = 1.00832e-11, global = -1.38414e-13, cumulative = -2.8945e-11
DICPCG:  Solving for p, Initial residual = 3.93666e-05, Final residual = 9.73232e-07, No Iterations 71
time step continuity errors : sum local = 1.04582e-11, global = -3.09563e-13, cumulative = -2.92545e-11
DICPCG:  Solving for p, Initial residual = 2.01536e-05, Final residual = 9.23716e-07, No Iterations 34
time step continuity errors : sum local = 9.92621e-12, global = -2.61808e-13, cumulative = -2.95163e-11
DICPCG:  Solving for p, Initial residual = 1.07341e-05, Final residual = 9.83672e-07, No Iterations 23
time step continuity errors : sum local = 1.05705e-11, global = -2.39519e-13, cumulative = -2.97559e-11
DICPCG:  Solving for p, Initial residual = 6.37426e-06, Final residual = 9.43361e-07, No Iterations 21
time step continuity errors : sum local = 1.01374e-11, global = -2.42667e-13, cumulative = -2.99985e-11
DICPCG:  Solving for p, Initial residual = 3.87976e-06, Final residual = 9.39321e-07, No Iterations 3
time step continuity errors : sum local = 1.0094e-11, global = -2.02391e-13, cumulative = -3.02009e-11
DICPCG:  Solving for p, Initial residual = 2.46752e-06, Final residual = 9.59187e-07, No Iterations 19
time step continuity errors : sum local = 1.03074e-11, global = -2.37354e-13, cumulative = -3.04383e-11
DICPCG:  Solving for p, Initial residual = 1.936e-06, Final residual = 8.6452e-07, No Iterations 1
time step continuity errors : sum local = 9.29015e-12, global = -2.25912e-13, cumulative = -3.06642e-11
DICPCG:  Solving for p, Initial residual = 1.30366e-06, Final residual = 9.45172e-07, No Iterations 2
time step continuity errors : sum local = 1.01568e-11, global = -2.11321e-13, cumulative = -3.08755e-11
DICPCG:  Solving for p, Initial residual = 1.34448e-06, Final residual = 7.28678e-07, No Iterations 1
time step continuity errors : sum local = 7.83039e-12, global = -2.04592e-13, cumulative = -3.10801e-11
DICPCG:  Solving for p, Initial residual = 8.48091e-07, Final residual = 8.48091e-07, No Iterations 0
time step continuity errors : sum local = 9.1136e-12, global = -2.04592e-13, cumulative = -3.12847e-11
DICPCG:  Solving for p, Initial residual = 8.04018e-07, Final residual = 8.04018e-07, No Iterations 0
time step continuity errors : sum local = 8.63999e-12, global = -2.04592e-13, cumulative = -3.14893e-11
DICPCG:  Solving for p, Initial residual = 8.85113e-07, Final residual = 8.85113e-07, No Iterations 0
time step continuity errors : sum local = 9.51144e-12, global = -2.04592e-13, cumulative = -3.16939e-11
DICPCG:  Solving for p, Initial residual = 8.77928e-07, Final residual = 8.77928e-07, No Iterations 0
time step continuity errors : sum local = 9.43423e-12, global = -2.04592e-13, cumulative = -3.18985e-11
DICPCG:  Solving for p, Initial residual = 9.14835e-07, Final residual = 9.14835e-07, No Iterations 0
time step continuity errors : sum local = 9.83083e-12, global = -2.04592e-13, cumulative = -3.21031e-11
DICPCG:  Solving for p, Initial residual = 9.1359e-07, Final residual = 9.1359e-07, No Iterations 0
time step continuity errors : sum local = 9.81745e-12, global = -2.04592e-13, cumulative = -3.23077e-11
DICPCG:  Solving for p, Initial residual = 9.29613e-07, Final residual = 9.29613e-07, No Iterations 0
time step continuity errors : sum local = 9.98964e-12, global = -2.04592e-13, cumulative = -3.25122e-11
DICPCG:  Solving for p, Initial residual = 9.29619e-07, Final residual = 9.29619e-07, No Iterations 0
time step continuity errors : sum local = 9.9897e-12, global = -2.04592e-13, cumulative = -3.27168e-11
DICPCG:  Solving for p, Initial residual = 9.36548e-07, Final residual = 9.36548e-07, No Iterations 0
time step continuity errors : sum local = 1.00642e-11, global = -2.04592e-13, cumulative = -3.29214e-11
DICPCG:  Solving for p, Initial residual = 9.36753e-07, Final residual = 9.36753e-07, No Iterations 0
time step continuity errors : sum local = 1.00664e-11, global = -2.04592e-13, cumulative = -3.3126e-11
DICPCG:  Solving for p, Initial residual = 9.39766e-07, Final residual = 9.39766e-07, No Iterations 0
time step continuity errors : sum local = 1.00987e-11, global = -2.04592e-13, cumulative = -3.33306e-11
DICPCG:  Solving for p, Initial residual = 9.39933e-07, Final residual = 9.39933e-07, No Iterations 0
time step continuity errors : sum local = 1.01005e-11, global = -2.04592e-13, cumulative = -3.35352e-11
DICPCG:  Solving for p, Initial residual = 9.41243e-07, Final residual = 9.41243e-07, No Iterations 0
time step continuity errors : sum local = 1.01146e-11, global = -2.04592e-13, cumulative = -3.37398e-11
DICPCG:  Solving for p, Initial residual = 9.41347e-07, Final residual = 9.41347e-07, No Iterations 0
time step continuity errors : sum local = 1.01157e-11, global = -2.04592e-13, cumulative = -3.39444e-11
DICPCG:  Solving for p, Initial residual = 9.41918e-07, Final residual = 9.41918e-07, No Iterations 0
time step continuity errors : sum local = 1.01219e-11, global = -2.04592e-13, cumulative = -3.4149e-11
DICPCG:  Solving for p, Initial residual = 9.41977e-07, Final residual = 9.41977e-07, No Iterations 0
time step continuity errors : sum local = 1.01225e-11, global = -2.04592e-13, cumulative = -3.43536e-11
DICPCG:  Solving for p, Initial residual = 9.42227e-07, Final residual = 9.42227e-07, No Iterations 0
time step continuity errors : sum local = 1.01252e-11, global = -2.04592e-13, cumulative = -3.45582e-11
DICPCG:  Solving for p, Initial residual = 9.42258e-07, Final residual = 9.42258e-07, No Iterations 0
time step continuity errors : sum local = 1.01255e-11, global = -2.04592e-13, cumulative = -3.47628e-11
ExecutionTime = 91.07 s  ClockTime = 100 s

forceCoeffs output:
    Cd = 22.4209
    Cl = -133.667
    Cm = 0.585289

Courant Number mean: 0.00836215 max: 0.435359
Time = 0.014


Assembling Vectors for non-Inertial Forces



Creating Angular Momentum Vector Components



Creating Angular Acceleration Vector Components



Assembling Vectors



Vector Assembly Complete


DILUPBiCG:  Solving for Ux, Initial residual = 0.052682, Final residual = 5.86407e-06, No Iterations 1
DILUPBiCG:  Solving for Uy, Initial residual = 0.313929, Final residual = 2.01158e-07, No Iterations 2
DICPCG:  Solving for p, Initial residual = 0.0399412, Final residual = 9.69201e-07, No Iterations 315
time step continuity errors : sum local = 1.08307e-11, global = -4.93335e-14, cumulative = -3.48121e-11
DICPCG:  Solving for p, Initial residual = 0.000346308, Final residual = 9.87472e-07, No Iterations 129
time step continuity errors : sum local = 1.14598e-11, global = 2.21729e-13, cumulative = -3.45904e-11
DICPCG:  Solving for p, Initial residual = 7.38876e-05, Final residual = 9.962e-07, No Iterations 50
time step continuity errors : sum local = 1.15622e-11, global = 2.20708e-13, cumulative = -3.43697e-11
DICPCG:  Solving for p, Initial residual = 2.93457e-05, Final residual = 9.60282e-07, No Iterations 70
time step continuity errors : sum local = 1.11455e-11, global = -5.21775e-14, cumulative = -3.44218e-11
DICPCG:  Solving for p, Initial residual = 1.52821e-05, Final residual = 9.93717e-07, No Iterations 30
time step continuity errors : sum local = 1.15336e-11, global = 7.9029e-14, cumulative = -3.43428e-11
DICPCG:  Solving for p, Initial residual = 8.31344e-06, Final residual = 9.18114e-07, No Iterations 23
time step continuity errors : sum local = 1.06561e-11, global = 1.37383e-13, cumulative = -3.42054e-11
DICPCG:  Solving for p, Initial residual = 5.02541e-06, Final residual = 8.65472e-07, No Iterations 21
time step continuity errors : sum local = 1.00452e-11, global = 1.49914e-13, cumulative = -3.40555e-11
DICPCG:  Solving for p, Initial residual = 3.09625e-06, Final residual = 8.9247e-07, No Iterations 3
time step continuity errors : sum local = 1.03585e-11, global = 2.25229e-13, cumulative = -3.38303e-11
DICPCG:  Solving for p, Initial residual = 1.9809e-06, Final residual = 8.6016e-07, No Iterations 1
time step continuity errors : sum local = 9.9835e-12, global = 2.63247e-13, cumulative = -3.3567e-11
DICPCG:  Solving for p, Initial residual = 1.30828e-06, Final residual = 9.29247e-07, No Iterations 19
time step continuity errors : sum local = 1.07854e-11, global = 1.9211e-13, cumulative = -3.33749e-11
DICPCG:  Solving for p, Initial residual = 1.65247e-06, Final residual = 8.53741e-07, No Iterations 3
time step continuity errors : sum local = 9.909e-12, global = 2.09893e-13, cumulative = -3.3165e-11
DICPCG:  Solving for p, Initial residual = 9.99094e-07, Final residual = 9.99094e-07, No Iterations 0
time step continuity errors : sum local = 1.15961e-11, global = 2.09893e-13, cumulative = -3.29551e-11
DICPCG:  Solving for p, Initial residual = 1.10697e-06, Final residual = 6.73431e-07, No Iterations 1
time step continuity errors : sum local = 7.81623e-12, global = 2.36057e-13, cumulative = -3.27191e-11
DICPCG:  Solving for p, Initial residual = 7.19026e-07, Final residual = 7.19026e-07, No Iterations 0
time step continuity errors : sum local = 8.34542e-12, global = 2.36057e-13, cumulative = -3.2483e-11
DICPCG:  Solving for p, Initial residual = 6.95101e-07, Final residual = 6.95101e-07, No Iterations 0
time step continuity errors : sum local = 8.06774e-12, global = 2.36057e-13, cumulative = -3.2247e-11
DICPCG:  Solving for p, Initial residual = 7.32437e-07, Final residual = 7.32437e-07, No Iterations 0
time step continuity errors : sum local = 8.50108e-12, global = 2.36057e-13, cumulative = -3.20109e-11
DICPCG:  Solving for p, Initial residual = 7.29774e-07, Final residual = 7.29774e-07, No Iterations 0
time step continuity errors : sum local = 8.47016e-12, global = 2.36057e-13, cumulative = -3.17748e-11
DICPCG:  Solving for p, Initial residual = 7.46962e-07, Final residual = 7.46962e-07, No Iterations 0
time step continuity errors : sum local = 8.66967e-12, global = 2.36057e-13, cumulative = -3.15388e-11
DICPCG:  Solving for p, Initial residual = 7.47029e-07, Final residual = 7.47029e-07, No Iterations 0
time step continuity errors : sum local = 8.67044e-12, global = 2.36057e-13, cumulative = -3.13027e-11
DICPCG:  Solving for p, Initial residual = 7.54444e-07, Final residual = 7.54444e-07, No Iterations 0
time step continuity errors : sum local = 8.75651e-12, global = 2.36057e-13, cumulative = -3.10667e-11
DICPCG:  Solving for p, Initial residual = 7.548e-07, Final residual = 7.548e-07, No Iterations 0
time step continuity errors : sum local = 8.76063e-12, global = 2.36057e-13, cumulative = -3.08306e-11
DICPCG:  Solving for p, Initial residual = 7.57981e-07, Final residual = 7.57981e-07, No Iterations 0
time step continuity errors : sum local = 8.79756e-12, global = 2.36057e-13, cumulative = -3.05946e-11
DICPCG:  Solving for p, Initial residual = 7.58237e-07, Final residual = 7.58237e-07, No Iterations 0
time step continuity errors : sum local = 8.80053e-12, global = 2.36057e-13, cumulative = -3.03585e-11
DICPCG:  Solving for p, Initial residual = 7.5961e-07, Final residual = 7.5961e-07, No Iterations 0
time step continuity errors : sum local = 8.81646e-12, global = 2.36057e-13, cumulative = -3.01224e-11
DICPCG:  Solving for p, Initial residual = 7.59755e-07, Final residual = 7.59755e-07, No Iterations 0
time step continuity errors : sum local = 8.81815e-12, global = 2.36057e-13, cumulative = -2.98864e-11
DICPCG:  Solving for p, Initial residual = 7.60348e-07, Final residual = 7.60348e-07, No Iterations 0
time step continuity errors : sum local = 8.82503e-12, global = 2.36057e-13, cumulative = -2.96503e-11
DICPCG:  Solving for p, Initial residual = 7.60422e-07, Final residual = 7.60422e-07, No Iterations 0
time step continuity errors : sum local = 8.82589e-12, global = 2.36057e-13, cumulative = -2.94143e-11
DICPCG:  Solving for p, Initial residual = 7.60679e-07, Final residual = 7.60679e-07, No Iterations 0
time step continuity errors : sum local = 8.82887e-12, global = 2.36057e-13, cumulative = -2.91782e-11
DICPCG:  Solving for p, Initial residual = 7.60716e-07, Final residual = 7.60716e-07, No Iterations 0
time step continuity errors : sum local = 8.8293e-12, global = 2.36057e-13, cumulative = -2.89422e-11
DICPCG:  Solving for p, Initial residual = 7.60828e-07, Final residual = 7.60828e-07, No Iterations 0
time step continuity errors : sum local = 8.8306e-12, global = 2.36057e-13, cumulative = -2.87061e-11
ExecutionTime = 99.58 s  ClockTime = 109 s

forceCoeffs output:
    Cd = 20.4989
    Cl = -134.057
    Cm = 0.684166

Courant Number mean: 0.0084884 max: 0.43517
Time = 0.016


Assembling Vectors for non-Inertial Forces



Creating Angular Momentum Vector Components



Creating Angular Acceleration Vector Components



Assembling Vectors



Vector Assembly Complete


DILUPBiCG:  Solving for Ux, Initial residual = 0.0472821, Final residual = 4.52005e-06, No Iterations 1
DILUPBiCG:  Solving for Uy, Initial residual = 0.281346, Final residual = 1.8471e-07, No Iterations 2
DICPCG:  Solving for p, Initial residual = 0.039988, Final residual = 9.97553e-07, No Iterations 316
time step continuity errors : sum local = 1.20482e-11, global = -1.602e-13, cumulative = -2.88663e-11
DICPCG:  Solving for p, Initial residual = 0.000283376, Final residual = 9.48774e-07, No Iterations 122
time step continuity errors : sum local = 1.19072e-11, global = 5.75676e-13, cumulative = -2.82906e-11
DICPCG:  Solving for p, Initial residual = 5.69902e-05, Final residual = 9.88277e-07, No Iterations 47
time step continuity errors : sum local = 1.24033e-11, global = 6.93944e-13, cumulative = -2.75967e-11
DICPCG:  Solving for p, Initial residual = 2.26567e-05, Final residual = 9.14885e-07, No Iterations 70
time step continuity errors : sum local = 1.14823e-11, global = 2.57643e-13, cumulative = -2.7339e-11
DICPCG:  Solving for p, Initial residual = 1.19428e-05, Final residual = 9.84898e-07, No Iterations 28
time step continuity errors : sum local = 1.2361e-11, global = 4.92754e-13, cumulative = -2.68463e-11
DICPCG:  Solving for p, Initial residual = 6.57779e-06, Final residual = 9.54892e-07, No Iterations 21
time step continuity errors : sum local = 1.19844e-11, global = 6.06397e-13, cumulative = -2.62399e-11
DICPCG:  Solving for p, Initial residual = 4.06666e-06, Final residual = 9.64798e-07, No Iterations 20
time step continuity errors : sum local = 1.21088e-11, global = 6.42273e-13, cumulative = -2.55976e-11
DICPCG:  Solving for p, Initial residual = 2.73138e-06, Final residual = 9.77956e-07, No Iterations 1
time step continuity errors : sum local = 1.22739e-11, global = 7.31073e-13, cumulative = -2.48665e-11
DICPCG:  Solving for p, Initial residual = 1.48393e-06, Final residual = 9.7739e-07, No Iterations 15
time step continuity errors : sum local = 1.22668e-11, global = 7.24476e-13, cumulative = -2.41421e-11
DICPCG:  Solving for p, Initial residual = 1.64112e-06, Final residual = 8.19591e-07, No Iterations 1
time step continuity errors : sum local = 1.02863e-11, global = 7.73144e-13, cumulative = -2.33689e-11
DICPCG:  Solving for p, Initial residual = 1.13305e-06, Final residual = 7.25142e-07, No Iterations 6
time step continuity errors : sum local = 9.10096e-12, global = 7.9079e-13, cumulative = -2.25781e-11
DICPCG:  Solving for p, Initial residual = 9.95752e-07, Final residual = 9.95752e-07, No Iterations 0
time step continuity errors : sum local = 1.24973e-11, global = 7.9079e-13, cumulative = -2.17873e-11
DICPCG:  Solving for p, Initial residual = 1.08999e-06, Final residual = 9.52668e-07, No Iterations 3
time step continuity errors : sum local = 1.19565e-11, global = 7.9855e-13, cumulative = -2.09888e-11
DICPCG:  Solving for p, Initial residual = 1.25157e-06, Final residual = 8.75324e-07, No Iterations 2
time step continuity errors : sum local = 1.09858e-11, global = 8.49921e-13, cumulative = -2.01389e-11
DICPCG:  Solving for p, Initial residual = 1.14011e-06, Final residual = 8.51947e-07, No Iterations 1
time step continuity errors : sum local = 1.06924e-11, global = 8.21513e-13, cumulative = -1.93174e-11
DICPCG:  Solving for p, Initial residual = 9.28676e-07, Final residual = 9.28676e-07, No Iterations 0
time step continuity errors : sum local = 1.16554e-11, global = 8.21513e-13, cumulative = -1.84958e-11
DICPCG:  Solving for p, Initial residual = 9.74872e-07, Final residual = 9.74872e-07, No Iterations 0
time step continuity errors : sum local = 1.22352e-11, global = 8.21513e-13, cumulative = -1.76743e-11
DICPCG:  Solving for p, Initial residual = 1.01787e-06, Final residual = 6.91712e-07, No Iterations 1
time step continuity errors : sum local = 8.68139e-12, global = 8.46249e-13, cumulative = -1.68281e-11
DICPCG:  Solving for p, Initial residual = 7.4572e-07, Final residual = 7.4572e-07, No Iterations 0
time step continuity errors : sum local = 9.35922e-12, global = 8.46249e-13, cumulative = -1.59818e-11
DICPCG:  Solving for p, Initial residual = 7.91247e-07, Final residual = 7.91247e-07, No Iterations 0
time step continuity errors : sum local = 9.93061e-12, global = 8.46249e-13, cumulative = -1.51356e-11
DICPCG:  Solving for p, Initial residual = 8.21774e-07, Final residual = 8.21774e-07, No Iterations 0
time step continuity errors : sum local = 1.03137e-11, global = 8.46249e-13, cumulative = -1.42893e-11
DICPCG:  Solving for p, Initial residual = 8.41888e-07, Final residual = 8.41888e-07, No Iterations 0
time step continuity errors : sum local = 1.05662e-11, global = 8.46249e-13, cumulative = -1.34431e-11
DICPCG:  Solving for p, Initial residual = 8.54984e-07, Final residual = 8.54984e-07, No Iterations 0
time step continuity errors : sum local = 1.07305e-11, global = 8.46249e-13, cumulative = -1.25968e-11
DICPCG:  Solving for p, Initial residual = 8.63481e-07, Final residual = 8.63481e-07, No Iterations 0
time step continuity errors : sum local = 1.08372e-11, global = 8.46249e-13, cumulative = -1.17506e-11
DICPCG:  Solving for p, Initial residual = 8.68998e-07, Final residual = 8.68998e-07, No Iterations 0
time step continuity errors : sum local = 1.09064e-11, global = 8.46249e-13, cumulative = -1.09043e-11
DICPCG:  Solving for p, Initial residual = 8.7257e-07, Final residual = 8.7257e-07, No Iterations 0
time step continuity errors : sum local = 1.09513e-11, global = 8.46249e-13, cumulative = -1.00581e-11
DICPCG:  Solving for p, Initial residual = 8.74897e-07, Final residual = 8.74897e-07, No Iterations 0
time step continuity errors : sum local = 1.09805e-11, global = 8.46249e-13, cumulative = -9.21184e-12
DICPCG:  Solving for p, Initial residual = 8.76403e-07, Final residual = 8.76403e-07, No Iterations 0
time step continuity errors : sum local = 1.09994e-11, global = 8.46249e-13, cumulative = -8.36559e-12
DICPCG:  Solving for p, Initial residual = 8.77387e-07, Final residual = 8.77387e-07, No Iterations 0
time step continuity errors : sum local = 1.10117e-11, global = 8.46249e-13, cumulative = -7.51934e-12
DICPCG:  Solving for p, Initial residual = 8.78025e-07, Final residual = 8.78025e-07, No Iterations 0
time step continuity errors : sum local = 1.10197e-11, global = 8.46249e-13, cumulative = -6.67309e-12
ExecutionTime = 107.98 s  ClockTime = 118 s

forceCoeffs output:
    Cd = 18.9979
    Cl = -134.357
    Cm = 0.787977

Courant Number mean: 0.00861458 max: 0.435898
Time = 0.018


Assembling Vectors for non-Inertial Forces



Creating Angular Momentum Vector Components



Creating Angular Acceleration Vector Components



Assembling Vectors



Vector Assembly Complete


DILUPBiCG:  Solving for Ux, Initial residual = 0.0429052, Final residual = 3.62712e-06, No Iterations 1
DILUPBiCG:  Solving for Uy, Initial residual = 0.254748, Final residual = 1.71353e-07, No Iterations 2
DICPCG:  Solving for p, Initial residual = 0.0404577, Final residual = 9.62488e-07, No Iterations 316
time step continuity errors : sum local = 1.2583e-11, global = -2.27736e-13, cumulative = -6.90082e-12
DICPCG:  Solving for p, Initial residual = 0.000242218, Final residual = 9.73497e-07, No Iterations 126
time step continuity errors : sum local = 1.32366e-11, global = 5.88312e-13, cumulative = -6.31251e-12
DICPCG:  Solving for p, Initial residual = 4.64313e-05, Final residual = 9.77202e-07, No Iterations 45
time step continuity errors : sum local = 1.32865e-11, global = 9.16799e-13, cumulative = -5.39571e-12
DICPCG:  Solving for p, Initial residual = 1.88438e-05, Final residual = 9.11926e-07, No Iterations 70
time step continuity errors : sum local = 1.2399e-11, global = 4.39079e-13, cumulative = -4.95663e-12
DICPCG:  Solving for p, Initial residual = 9.96454e-06, Final residual = 8.68685e-07, No Iterations 28
time step continuity errors : sum local = 1.18111e-11, global = 7.67223e-13, cumulative = -4.18941e-12
DICPCG:  Solving for p, Initial residual = 5.47009e-06, Final residual = 8.6244e-07, No Iterations 21
time step continuity errors : sum local = 1.17262e-11, global = 9.27643e-13, cumulative = -3.26177e-12
DICPCG:  Solving for p, Initial residual = 3.43448e-06, Final residual = 9.42341e-07, No Iterations 10
time step continuity errors : sum local = 1.28126e-11, global = 1.11126e-12, cumulative = -2.15051e-12
DICPCG:  Solving for p, Initial residual = 2.39636e-06, Final residual = 9.64826e-07, No Iterations 1
time step continuity errors : sum local = 1.31183e-11, global = 1.25243e-12, cumulative = -8.98086e-13
DICPCG:  Solving for p, Initial residual = 1.60251e-06, Final residual = 8.89121e-07, No Iterations 22
time step continuity errors : sum local = 1.2089e-11, global = 1.09612e-12, cumulative = 1.98031e-13
DICPCG:  Solving for p, Initial residual = 1.50381e-06, Final residual = 9.45211e-07, No Iterations 1
time step continuity errors : sum local = 1.28516e-11, global = 1.17726e-12, cumulative = 1.37529e-12
DICPCG:  Solving for p, Initial residual = 1.30127e-06, Final residual = 8.42044e-07, No Iterations 6
time step continuity errors : sum local = 1.14489e-11, global = 1.18987e-12, cumulative = 2.56517e-12
DICPCG:  Solving for p, Initial residual = 1.04007e-06, Final residual = 9.88773e-07, No Iterations 1
time step continuity errors : sum local = 1.34439e-11, global = 1.24107e-12, cumulative = 3.80624e-12
DICPCG:  Solving for p, Initial residual = 1.1413e-06, Final residual = 7.57025e-07, No Iterations 3
time step continuity errors : sum local = 1.0293e-11, global = 1.25308e-12, cumulative = 5.05932e-12
DICPCG:  Solving for p, Initial residual = 9.37506e-07, Final residual = 9.37506e-07, No Iterations 0
time step continuity errors : sum local = 1.27469e-11, global = 1.25308e-12, cumulative = 6.3124e-12
DICPCG:  Solving for p, Initial residual = 1.04892e-06, Final residual = 8.88978e-07, No Iterations 2
time step continuity errors : sum local = 1.20871e-11, global = 1.24667e-12, cumulative = 7.55907e-12
DICPCG:  Solving for p, Initial residual = 1.15277e-06, Final residual = 8.35925e-07, No Iterations 1
time step continuity errors : sum local = 1.13657e-11, global = 1.2507e-12, cumulative = 8.80977e-12
DICPCG:  Solving for p, Initial residual = 9.51199e-07, Final residual = 9.51199e-07, No Iterations 0
time step continuity errors : sum local = 1.29331e-11, global = 1.2507e-12, cumulative = 1.00605e-11
DICPCG:  Solving for p, Initial residual = 1.03843e-06, Final residual = 7.12147e-07, No Iterations 1
time step continuity errors : sum local = 9.68277e-12, global = 1.26122e-12, cumulative = 1.13217e-11
DICPCG:  Solving for p, Initial residual = 7.65525e-07, Final residual = 7.65525e-07, No Iterations 0
time step continuity errors : sum local = 1.04085e-11, global = 1.26122e-12, cumulative = 1.25829e-11
DICPCG:  Solving for p, Initial residual = 8.09485e-07, Final residual = 8.09485e-07, No Iterations 0
time step continuity errors : sum local = 1.10062e-11, global = 1.26122e-12, cumulative = 1.38441e-11
DICPCG:  Solving for p, Initial residual = 8.4029e-07, Final residual = 8.4029e-07, No Iterations 0
time step continuity errors : sum local = 1.14251e-11, global = 1.26122e-12, cumulative = 1.51054e-11
DICPCG:  Solving for p, Initial residual = 8.6051e-07, Final residual = 8.6051e-07, No Iterations 0
time step continuity errors : sum local = 1.17e-11, global = 1.26122e-12, cumulative = 1.63666e-11
DICPCG:  Solving for p, Initial residual = 8.73944e-07, Final residual = 8.73944e-07, No Iterations 0
time step continuity errors : sum local = 1.18827e-11, global = 1.26122e-12, cumulative = 1.76278e-11
DICPCG:  Solving for p, Initial residual = 8.82618e-07, Final residual = 8.82618e-07, No Iterations 0
time step continuity errors : sum local = 1.20006e-11, global = 1.26122e-12, cumulative = 1.8889e-11
DICPCG:  Solving for p, Initial residual = 8.88313e-07, Final residual = 8.88313e-07, No Iterations 0
time step continuity errors : sum local = 1.2078e-11, global = 1.26122e-12, cumulative = 2.01502e-11
DICPCG:  Solving for p, Initial residual = 8.91972e-07, Final residual = 8.91972e-07, No Iterations 0
time step continuity errors : sum local = 1.21278e-11, global = 1.26122e-12, cumulative = 2.14114e-11
DICPCG:  Solving for p, Initial residual = 8.94372e-07, Final residual = 8.94372e-07, No Iterations 0
time step continuity errors : sum local = 1.21604e-11, global = 1.26122e-12, cumulative = 2.26727e-11
DICPCG:  Solving for p, Initial residual = 8.9592e-07, Final residual = 8.9592e-07, No Iterations 0
time step continuity errors : sum local = 1.21815e-11, global = 1.26122e-12, cumulative = 2.39339e-11
DICPCG:  Solving for p, Initial residual = 8.96939e-07, Final residual = 8.96939e-07, No Iterations 0
time step continuity errors : sum local = 1.21953e-11, global = 1.26122e-12, cumulative = 2.51951e-11
DICPCG:  Solving for p, Initial residual = 8.97597e-07, Final residual = 8.97597e-07, No Iterations 0
time step continuity errors : sum local = 1.22043e-11, global = 1.26122e-12, cumulative = 2.64563e-11
ExecutionTime = 116.36 s  ClockTime = 126 s

forceCoeffs output:
    Cd = 17.7888
    Cl = -134.622
    Cm = 0.886702

Courant Number mean: 0.00874063 max: 0.43746
Time = 0.02


Assembling Vectors for non-Inertial Forces



Creating Angular Momentum Vector Components



Creating Angular Acceleration Vector Components



Assembling Vectors



Vector Assembly Complete


DILUPBiCG:  Solving for Ux, Initial residual = 0.0393198, Final residual = 3.0031e-06, No Iterations 1
DILUPBiCG:  Solving for Uy, Initial residual = 0.232535, Final residual = 1.60241e-07, No Iterations 2
DICPCG:  Solving for p, Initial residual = 0.0406363, Final residual = 9.44341e-07, No Iterations 315
time step continuity errors : sum local = 1.33777e-11, global = -2.50611e-13, cumulative = 2.62057e-11
DICPCG:  Solving for p, Initial residual = 0.000227419, Final residual = 9.73961e-07, No Iterations 122
time step continuity errors : sum local = 1.43529e-11, global = 6.7136e-13, cumulative = 2.68771e-11
DICPCG:  Solving for p, Initial residual = 4.20642e-05, Final residual = 9.91638e-07, No Iterations 44
time step continuity errors : sum local = 1.46122e-11, global = 1.0571e-12, cumulative = 2.79342e-11
DICPCG:  Solving for p, Initial residual = 1.75046e-05, Final residual = 9.26844e-07, No Iterations 70
time step continuity errors : sum local = 1.36574e-11, global = 5.18427e-13, cumulative = 2.84526e-11
DICPCG:  Solving for p, Initial residual = 9.28762e-06, Final residual = 9.97918e-07, No Iterations 26
time step continuity errors : sum local = 1.47047e-11, global = 9.11599e-13, cumulative = 2.93642e-11
DICPCG:  Solving for p, Initial residual = 5.1859e-06, Final residual = 8.78159e-07, No Iterations 21
time step continuity errors : sum local = 1.294e-11, global = 1.09881e-12, cumulative = 3.0463e-11
DICPCG:  Solving for p, Initial residual = 3.23097e-06, Final residual = 8.65444e-07, No Iterations 10
time step continuity errors : sum local = 1.27527e-11, global = 1.31901e-12, cumulative = 3.1782e-11
DICPCG:  Solving for p, Initial residual = 2.2291e-06, Final residual = 8.93744e-07, No Iterations 1
time step continuity errors : sum local = 1.31697e-11, global = 1.50974e-12, cumulative = 3.32918e-11
DICPCG:  Solving for p, Initial residual = 1.56523e-06, Final residual = 9.54039e-07, No Iterations 20
time step continuity errors : sum local = 1.40581e-11, global = 1.32204e-12, cumulative = 3.46138e-11
DICPCG:  Solving for p, Initial residual = 1.53387e-06, Final residual = 9.65742e-07, No Iterations 1
time step continuity errors : sum local = 1.42306e-11, global = 1.4277e-12, cumulative = 3.60415e-11
DICPCG:  Solving for p, Initial residual = 1.30205e-06, Final residual = 8.60036e-07, No Iterations 6
time step continuity errors : sum local = 1.2673e-11, global = 1.4384e-12, cumulative = 3.74799e-11
DICPCG:  Solving for p, Initial residual = 1.05293e-06, Final residual = 9.58821e-07, No Iterations 1
time step continuity errors : sum local = 1.41286e-11, global = 1.48511e-12, cumulative = 3.8965e-11
DICPCG:  Solving for p, Initial residual = 1.10698e-06, Final residual = 6.28884e-07, No Iterations 3
time step continuity errors : sum local = 9.26686e-12, global = 1.50032e-12, cumulative = 4.04653e-11
DICPCG:  Solving for p, Initial residual = 7.81765e-07, Final residual = 7.81765e-07, No Iterations 0
time step continuity errors : sum local = 1.15196e-11, global = 1.50032e-12, cumulative = 4.19656e-11
DICPCG:  Solving for p, Initial residual = 8.78006e-07, Final residual = 8.78006e-07, No Iterations 0
time step continuity errors : sum local = 1.29378e-11, global = 1.50032e-12, cumulative = 4.3466e-11
DICPCG:  Solving for p, Initial residual = 9.59586e-07, Final residual = 9.59586e-07, No Iterations 0
time step continuity errors : sum local = 1.41399e-11, global = 1.50032e-12, cumulative = 4.49663e-11
DICPCG:  Solving for p, Initial residual = 1.00788e-06, Final residual = 8.84877e-07, No Iterations 3
time step continuity errors : sum local = 1.3039e-11, global = 1.49e-12, cumulative = 4.64563e-11
DICPCG:  Solving for p, Initial residual = 1.0575e-06, Final residual = 5.44848e-07, No Iterations 2
time step continuity errors : sum local = 8.02855e-12, global = 1.52592e-12, cumulative = 4.79822e-11
DICPCG:  Solving for p, Initial residual = 7.13785e-07, Final residual = 7.13785e-07, No Iterations 0
time step continuity errors : sum local = 1.05179e-11, global = 1.52592e-12, cumulative = 4.95081e-11
DICPCG:  Solving for p, Initial residual = 8.29254e-07, Final residual = 8.29254e-07, No Iterations 0
time step continuity errors : sum local = 1.22194e-11, global = 1.52592e-12, cumulative = 5.1034e-11
DICPCG:  Solving for p, Initial residual = 9.04925e-07, Final residual = 9.04925e-07, No Iterations 0
time step continuity errors : sum local = 1.33344e-11, global = 1.52592e-12, cumulative = 5.25599e-11
DICPCG:  Solving for p, Initial residual = 9.5413e-07, Final residual = 9.5413e-07, No Iterations 0
time step continuity errors : sum local = 1.40595e-11, global = 1.52592e-12, cumulative = 5.40859e-11
DICPCG:  Solving for p, Initial residual = 9.86487e-07, Final residual = 9.86487e-07, No Iterations 0
time step continuity errors : sum local = 1.45363e-11, global = 1.52592e-12, cumulative = 5.56118e-11
DICPCG:  Solving for p, Initial residual = 1.00758e-06, Final residual = 9.52221e-07, No Iterations 1
time step continuity errors : sum local = 1.40314e-11, global = 1.50372e-12, cumulative = 5.71155e-11
DICPCG:  Solving for p, Initial residual = 1.2607e-06, Final residual = 5.99925e-07, No Iterations 1
time step continuity errors : sum local = 8.84013e-12, global = 1.51972e-12, cumulative = 5.86352e-11
DICPCG:  Solving for p, Initial residual = 6.75854e-07, Final residual = 6.75854e-07, No Iterations 0
time step continuity errors : sum local = 9.95898e-12, global = 1.51972e-12, cumulative = 6.0155e-11
DICPCG:  Solving for p, Initial residual = 7.57125e-07, Final residual = 7.57125e-07, No Iterations 0
time step continuity errors : sum local = 1.11565e-11, global = 1.51972e-12, cumulative = 6.16747e-11
DICPCG:  Solving for p, Initial residual = 8.14962e-07, Final residual = 8.14962e-07, No Iterations 0
time step continuity errors : sum local = 1.20088e-11, global = 1.51972e-12, cumulative = 6.31944e-11
DICPCG:  Solving for p, Initial residual = 8.53532e-07, Final residual = 8.53532e-07, No Iterations 0
time step continuity errors : sum local = 1.25771e-11, global = 1.51972e-12, cumulative = 6.47141e-11
DICPCG:  Solving for p, Initial residual = 8.79014e-07, Final residual = 8.79014e-07, No Iterations 0
time step continuity errors : sum local = 1.29526e-11, global = 1.51972e-12, cumulative = 6.62338e-11
ExecutionTime = 125.32 s  ClockTime = 136 s

forceCoeffs output:
    Cd = 16.8048
    Cl = -134.889
    Cm = 0.981341

Courant Number mean: 0.00886647 max: 0.439837
Time = 0.022


Assembling Vectors for non-Inertial Forces



Creating Angular Momentum Vector Components



Creating Angular Acceleration Vector Components



Assembling Vectors



Vector Assembly Complete


DILUPBiCG:  Solving for Ux, Initial residual = 0.0364274, Final residual = 2.55039e-06, No Iterations 1
DILUPBiCG:  Solving for Uy, Initial residual = 0.213682, Final residual = 1.50887e-07, No Iterations 2
DICPCG:  Solving for p, Initial residual = 0.040304, Final residual = 9.34353e-07, No Iterations 316
time step continuity errors : sum local = 1.43403e-11, global = -3.16567e-13, cumulative = 6.59173e-11
DICPCG:  Solving for p, Initial residual = 0.000223248, Final residual = 9.74183e-07, No Iterations 127
time step continuity errors : sum local = 1.55486e-11, global = 4.33656e-13, cumulative = 6.63509e-11
DICPCG:  Solving for p, Initial residual = 4.03037e-05, Final residual = 9.16954e-07, No Iterations 44
time step continuity errors : sum local = 1.46335e-11, global = 9.35958e-13, cumulative = 6.72869e-11
DICPCG:  Solving for p, Initial residual = 1.71271e-05, Final residual = 9.70607e-07, No Iterations 37
time step continuity errors : sum local = 1.54897e-11, global = 1.21119e-12, cumulative = 6.84981e-11
DICPCG:  Solving for p, Initial residual = 9.03792e-06, Final residual = 9.41788e-07, No Iterations 35
time step continuity errors : sum local = 1.50298e-11, global = 1.28931e-12, cumulative = 6.97874e-11
DICPCG:  Solving for p, Initial residual = 5.09945e-06, Final residual = 9.93401e-07, No Iterations 17
time step continuity errors : sum local = 1.58534e-11, global = 1.49538e-12, cumulative = 7.12828e-11
DICPCG:  Solving for p, Initial residual = 3.32661e-06, Final residual = 8.41524e-07, No Iterations 19
time step continuity errors : sum local = 1.34297e-11, global = 1.47946e-12, cumulative = 7.27622e-11
DICPCG:  Solving for p, Initial residual = 2.15147e-06, Final residual = 8.05618e-07, No Iterations 1
time step continuity errors : sum local = 1.28566e-11, global = 1.70554e-12, cumulative = 7.44678e-11
DICPCG:  Solving for p, Initial residual = 1.51266e-06, Final residual = 9.62409e-07, No Iterations 8
time step continuity errors : sum local = 1.53588e-11, global = 1.7094e-12, cumulative = 7.61772e-11
DICPCG:  Solving for p, Initial residual = 1.52393e-06, Final residual = 8.54809e-07, No Iterations 1
time step continuity errors : sum local = 1.36417e-11, global = 1.85734e-12, cumulative = 7.80345e-11
DICPCG:  Solving for p, Initial residual = 1.12047e-06, Final residual = 9.43998e-07, No Iterations 15
time step continuity errors : sum local = 1.5065e-11, global = 1.58622e-12, cumulative = 7.96207e-11
DICPCG:  Solving for p, Initial residual = 1.13479e-06, Final residual = 9.48086e-07, No Iterations 1
time step continuity errors : sum local = 1.51303e-11, global = 1.64588e-12, cumulative = 8.12666e-11
DICPCG:  Solving for p, Initial residual = 1.09998e-06, Final residual = 9.40513e-07, No Iterations 7
time step continuity errors : sum local = 1.50094e-11, global = 1.61506e-12, cumulative = 8.28817e-11
DICPCG:  Solving for p, Initial residual = 1.05483e-06, Final residual = 8.46092e-07, No Iterations 1
time step continuity errors : sum local = 1.35026e-11, global = 1.66122e-12, cumulative = 8.45429e-11
DICPCG:  Solving for p, Initial residual = 9.51517e-07, Final residual = 9.51517e-07, No Iterations 0
time step continuity errors : sum local = 1.5185e-11, global = 1.66122e-12, cumulative = 8.62041e-11
DICPCG:  Solving for p, Initial residual = 1.04532e-06, Final residual = 6.54363e-07, No Iterations 3
time step continuity errors : sum local = 1.04428e-11, global = 1.66076e-12, cumulative = 8.78649e-11
DICPCG:  Solving for p, Initial residual = 8.5894e-07, Final residual = 8.5894e-07, No Iterations 0
time step continuity errors : sum local = 1.37076e-11, global = 1.66076e-12, cumulative = 8.95256e-11
DICPCG:  Solving for p, Initial residual = 1.01105e-06, Final residual = 8.3799e-07, No Iterations 2
time step continuity errors : sum local = 1.33733e-11, global = 1.65307e-12, cumulative = 9.11787e-11
DICPCG:  Solving for p, Initial residual = 1.11889e-06, Final residual = 8.12086e-07, No Iterations 1
time step continuity errors : sum local = 1.29599e-11, global = 1.65737e-12, cumulative = 9.28361e-11
DICPCG:  Solving for p, Initial residual = 9.34909e-07, Final residual = 9.34909e-07, No Iterations 0
time step continuity errors : sum local = 1.492e-11, global = 1.65737e-12, cumulative = 9.44934e-11
DICPCG:  Solving for p, Initial residual = 1.02876e-06, Final residual = 6.1285e-07, No Iterations 1
time step continuity errors : sum local = 9.78032e-12, global = 1.65625e-12, cumulative = 9.61497e-11
DICPCG:  Solving for p, Initial residual = 6.50162e-07, Final residual = 6.50162e-07, No Iterations 0
time step continuity errors : sum local = 1.03758e-11, global = 1.65625e-12, cumulative = 9.78059e-11
DICPCG:  Solving for p, Initial residual = 6.98605e-07, Final residual = 6.98605e-07, No Iterations 0
time step continuity errors : sum local = 1.11488e-11, global = 1.65625e-12, cumulative = 9.94622e-11
DICPCG:  Solving for p, Initial residual = 7.32803e-07, Final residual = 7.32803e-07, No Iterations 0
time step continuity errors : sum local = 1.16946e-11, global = 1.65625e-12, cumulative = 1.01118e-10
DICPCG:  Solving for p, Initial residual = 7.5594e-07, Final residual = 7.5594e-07, No Iterations 0
time step continuity errors : sum local = 1.20638e-11, global = 1.65625e-12, cumulative = 1.02775e-10
DICPCG:  Solving for p, Initial residual = 7.71545e-07, Final residual = 7.71545e-07, No Iterations 0
time step continuity errors : sum local = 1.23129e-11, global = 1.65625e-12, cumulative = 1.04431e-10
DICPCG:  Solving for p, Initial residual = 7.81963e-07, Final residual = 7.81963e-07, No Iterations 0
time step continuity errors : sum local = 1.24791e-11, global = 1.65625e-12, cumulative = 1.06087e-10
DICPCG:  Solving for p, Initial residual = 7.88922e-07, Final residual = 7.88922e-07, No Iterations 0
time step continuity errors : sum local = 1.25902e-11, global = 1.65625e-12, cumulative = 1.07743e-10
DICPCG:  Solving for p, Initial residual = 7.93535e-07, Final residual = 7.93535e-07, No Iterations 0
time step continuity errors : sum local = 1.26638e-11, global = 1.65625e-12, cumulative = 1.094e-10
DICPCG:  Solving for p, Initial residual = 7.96596e-07, Final residual = 7.96596e-07, No Iterations 0
time step continuity errors : sum local = 1.27127e-11, global = 1.65625e-12, cumulative = 1.11056e-10
ExecutionTime = 133.55 s  ClockTime = 144 s

forceCoeffs output:
    Cd = 15.9752
    Cl = -135.095
    Cm = 1.0715

Courant Number mean: 0.0089921 max: 0.444534
Time = 0.024


Assembling Vectors for non-Inertial Forces



Creating Angular Momentum Vector Components



Creating Angular Acceleration Vector Components



Assembling Vectors



Vector Assembly Complete


DILUPBiCG:  Solving for Ux, Initial residual = 0.0341196, Final residual = 2.21313e-06, No Iterations 1
DILUPBiCG:  Solving for Uy, Initial residual = 0.19749, Final residual = 1.42848e-07, No Iterations 2
DICPCG:  Solving for p, Initial residual = 0.0396795, Final residual = 9.82157e-07, No Iterations 313
time step continuity errors : sum local = 1.63164e-11, global = -2.88944e-13, cumulative = 1.10767e-10
DICPCG:  Solving for p, Initial residual = 0.000216827, Final residual = 9.32753e-07, No Iterations 128
time step continuity errors : sum local = 1.61057e-11, global = 1.61168e-13, cumulative = 1.10928e-10
DICPCG:  Solving for p, Initial residual = 3.85801e-05, Final residual = 9.79874e-07, No Iterations 42
time step continuity errors : sum local = 1.69171e-11, global = 5.93885e-13, cumulative = 1.11522e-10
DICPCG:  Solving for p, Initial residual = 1.675e-05, Final residual = 9.93495e-07, No Iterations 34
time step continuity errors : sum local = 1.71522e-11, global = 8.47202e-13, cumulative = 1.12369e-10
DICPCG:  Solving for p, Initial residual = 8.82003e-06, Final residual = 8.89081e-07, No Iterations 28
time step continuity errors : sum local = 1.53495e-11, global = 9.83427e-13, cumulative = 1.13353e-10
DICPCG:  Solving for p, Initial residual = 4.93177e-06, Final residual = 9.8421e-07, No Iterations 20
time step continuity errors : sum local = 1.69918e-11, global = 1.04801e-12, cumulative = 1.14401e-10
DICPCG:  Solving for p, Initial residual = 3.3305e-06, Final residual = 9.71819e-07, No Iterations 1
time step continuity errors : sum local = 1.67779e-11, global = 1.38388e-12, cumulative = 1.15785e-10
DICPCG:  Solving for p, Initial residual = 2.12983e-06, Final residual = 9.18358e-07, No Iterations 20
time step continuity errors : sum local = 1.58549e-11, global = 1.14114e-12, cumulative = 1.16926e-10
DICPCG:  Solving for p, Initial residual = 1.69909e-06, Final residual = 6.78894e-07, No Iterations 1
time step continuity errors : sum local = 1.17207e-11, global = 1.3009e-12, cumulative = 1.18227e-10
DICPCG:  Solving for p, Initial residual = 1.14712e-06, Final residual = 8.87424e-07, No Iterations 2
time step continuity errors : sum local = 1.53209e-11, global = 1.36507e-12, cumulative = 1.19592e-10
DICPCG:  Solving for p, Initial residual = 1.16739e-06, Final residual = 6.82715e-07, No Iterations 1
time step continuity errors : sum local = 1.17867e-11, global = 1.42436e-12, cumulative = 1.21016e-10
DICPCG:  Solving for p, Initial residual = 8.36315e-07, Final residual = 8.36315e-07, No Iterations 0
time step continuity errors : sum local = 1.44385e-11, global = 1.42436e-12, cumulative = 1.2244e-10
DICPCG:  Solving for p, Initial residual = 8.02766e-07, Final residual = 8.02766e-07, No Iterations 0
time step continuity errors : sum local = 1.38593e-11, global = 1.42436e-12, cumulative = 1.23865e-10
DICPCG:  Solving for p, Initial residual = 8.73858e-07, Final residual = 8.73858e-07, No Iterations 0
time step continuity errors : sum local = 1.50866e-11, global = 1.42436e-12, cumulative = 1.25289e-10
DICPCG:  Solving for p, Initial residual = 8.65762e-07, Final residual = 8.65762e-07, No Iterations 0
time step continuity errors : sum local = 1.49469e-11, global = 1.42436e-12, cumulative = 1.26713e-10
DICPCG:  Solving for p, Initial residual = 8.95759e-07, Final residual = 8.95759e-07, No Iterations 0
time step continuity errors : sum local = 1.54648e-11, global = 1.42436e-12, cumulative = 1.28138e-10
DICPCG:  Solving for p, Initial residual = 8.93864e-07, Final residual = 8.93864e-07, No Iterations 0
time step continuity errors : sum local = 1.5432e-11, global = 1.42436e-12, cumulative = 1.29562e-10
DICPCG:  Solving for p, Initial residual = 9.0666e-07, Final residual = 9.0666e-07, No Iterations 0
time step continuity errors : sum local = 1.5653e-11, global = 1.42436e-12, cumulative = 1.30987e-10
DICPCG:  Solving for p, Initial residual = 9.06362e-07, Final residual = 9.06362e-07, No Iterations 0
time step continuity errors : sum local = 1.56478e-11, global = 1.42436e-12, cumulative = 1.32411e-10
DICPCG:  Solving for p, Initial residual = 9.11882e-07, Final residual = 9.11882e-07, No Iterations 0
[...]
time step continuity errors : sum local = 6.51218e-11, global = -1.67397e-12, cumulative = 3.41976e-10
DICPCG:  Solving for p, Initial residual = 8.24243e-07, Final residual = 8.24243e-07, No Iterations 0
time step continuity errors : sum local = 7.34982e-11, global = -1.67397e-12, cumulative = 3.40302e-10
DICPCG:  Solving for p, Initial residual = 8.02121e-07, Final residual = 8.02121e-07, No Iterations 0
time step continuity errors : sum local = 7.15256e-11, global = -1.67397e-12, cumulative = 3.38628e-10
DICPCG:  Solving for p, Initial residual = 8.40763e-07, Final residual = 8.40763e-07, No Iterations 0
time step continuity errors : sum local = 7.49714e-11, global = -1.67397e-12, cumulative = 3.36954e-10
DICPCG:  Solving for p, Initial residual = 8.32872e-07, Final residual = 8.32872e-07, No Iterations 0
time step continuity errors : sum local = 7.42677e-11, global = -1.67397e-12, cumulative = 3.3528e-10
DICPCG:  Solving for p, Initial residual = 8.48894e-07, Final residual = 8.48894e-07, No Iterations 0
time step continuity errors : sum local = 7.56964e-11, global = -1.67397e-12, cumulative = 3.33606e-10
DICPCG:  Solving for p, Initial residual = 8.46205e-07, Final residual = 8.46205e-07, No Iterations 0
time step continuity errors : sum local = 7.54567e-11, global = -1.67397e-12, cumulative = 3.31932e-10
DICPCG:  Solving for p, Initial residual = 8.52917e-07, Final residual = 8.52917e-07, No Iterations 0
time step continuity errors : sum local = 7.60551e-11, global = -1.67397e-12, cumulative = 3.30258e-10
DICPCG:  Solving for p, Initial residual = 8.5202e-07, Final residual = 8.5202e-07, No Iterations 0
time step continuity errors : sum local = 7.59751e-11, global = -1.67397e-12, cumulative = 3.28584e-10
DICPCG:  Solving for p, Initial residual = 8.54848e-07, Final residual = 8.54848e-07, No Iterations 0
time step continuity errors : sum local = 7.62273e-11, global = -1.67397e-12, cumulative = 3.2691e-10
DICPCG:  Solving for p, Initial residual = 8.54561e-07, Final residual = 8.54561e-07, No Iterations 0
time step continuity errors : sum local = 7.62018e-11, global = -1.67397e-12, cumulative = 3.25236e-10
DICPCG:  Solving for p, Initial residual = 8.5576e-07, Final residual = 8.5576e-07, No Iterations 0
time step continuity errors : sum local = 7.63087e-11, global = -1.67397e-12, cumulative = 3.23562e-10
DICPCG:  Solving for p, Initial residual = 8.55677e-07, Final residual = 8.55677e-07, No Iterations 0
time step continuity errors : sum local = 7.63013e-11, global = -1.67397e-12, cumulative = 3.21888e-10
DICPCG:  Solving for p, Initial residual = 8.56188e-07, Final residual = 8.56188e-07, No Iterations 0
time step continuity errors : sum local = 7.63468e-11, global = -1.67397e-12, cumulative = 3.20214e-10
DICPCG:  Solving for p, Initial residual = 8.56169e-07, Final residual = 8.56169e-07, No Iterations 0
time step continuity errors : sum local = 7.63451e-11, global = -1.67397e-12, cumulative = 3.1854e-10
DICPCG:  Solving for p, Initial residual = 8.56388e-07, Final residual = 8.56388e-07, No Iterations 0
time step continuity errors : sum local = 7.63646e-11, global = -1.67397e-12, cumulative = 3.16866e-10
DICPCG:  Solving for p, Initial residual = 8.56387e-07, Final residual = 8.56387e-07, No Iterations 0
time step continuity errors : sum local = 7.63645e-11, global = -1.67397e-12, cumulative = 3.15192e-10
DICPCG:  Solving for p, Initial residual = 8.56481e-07, Final residual = 8.56481e-07, No Iterations 0
time step continuity errors : sum local = 7.63729e-11, global = -1.67397e-12, cumulative = 3.13518e-10
DICPCG:  Solving for p, Initial residual = 8.56483e-07, Final residual = 8.56483e-07, No Iterations 0
time step continuity errors : sum local = 7.63731e-11, global = -1.67397e-12, cumulative = 3.11844e-10
DICPCG:  Solving for p, Initial residual = 8.56524e-07, Final residual = 8.56524e-07, No Iterations 0
time step continuity errors : sum local = 7.63768e-11, global = -1.67397e-12, cumulative = 3.10171e-10
ExecutionTime = 390.99 s  ClockTime = 407 s

forceCoeffs output:
    Cd = 8.2451
    Cl = -125.343
    Cm = 3.91443

Courant Number mean: 0.0130329 max: 0.735919
Time = 0.092


Assembling Vectors for non-Inertial Forces



Creating Angular Momentum Vector Components



Creating Angular Acceleration Vector Components



Assembling Vectors



Vector Assembly Complete


DILUPBiCG:  Solving for Ux, Initial residual = 0.0113268, Final residual = 3.13977e-07, No Iterations 1
DILUPBiCG:  Solving for Uy, Initial residual = 0.0523738, Final residual = 3.89931e-06, No Iterations 1
DICPCG:  Solving for p, Initial residual = 0.0150154, Final residual = 9.30003e-07, No Iterations 148
time step continuity errors : sum local = 8.41589e-11, global = 1.12246e-11, cumulative = 3.21395e-10
DICPCG:  Solving for p, Initial residual = 9.14988e-05, Final residual = 9.85938e-07, No Iterations 114
time step continuity errors : sum local = 9.05207e-11, global = 8.65335e-12, cumulative = 3.30048e-10
DICPCG:  Solving for p, Initial residual = 1.98179e-05, Final residual = 9.31307e-07, No Iterations 37
time step continuity errors : sum local = 8.54991e-11, global = 8.39602e-12, cumulative = 3.38444e-10
DICPCG:  Solving for p, Initial residual = 8.78898e-06, Final residual = 9.46784e-07, No Iterations 21
time step continuity errors : sum local = 8.69197e-11, global = 8.27705e-12, cumulative = 3.46722e-10
DICPCG:  Solving for p, Initial residual = 4.70054e-06, Final residual = 9.04543e-07, No Iterations 10
time step continuity errors : sum local = 8.30416e-11, global = 8.20102e-12, cumulative = 3.54923e-10
DICPCG:  Solving for p, Initial residual = 2.80088e-06, Final residual = 9.24603e-07, No Iterations 14
time step continuity errors : sum local = 8.48832e-11, global = 8.13095e-12, cumulative = 3.63053e-10
DICPCG:  Solving for p, Initial residual = 1.93186e-06, Final residual = 7.85533e-07, No Iterations 1
time step continuity errors : sum local = 7.21159e-11, global = 8.12028e-12, cumulative = 3.71174e-10
DICPCG:  Solving for p, Initial residual = 1.41836e-06, Final residual = 9.32831e-07, No Iterations 2
time step continuity errors : sum local = 8.56385e-11, global = 8.04708e-12, cumulative = 3.79221e-10
DICPCG:  Solving for p, Initial residual = 1.29222e-06, Final residual = 5.76598e-07, No Iterations 1
time step continuity errors : sum local = 5.29346e-11, global = 8.04099e-12, cumulative = 3.87262e-10
DICPCG:  Solving for p, Initial residual = 7.85794e-07, Final residual = 7.85794e-07, No Iterations 0
time step continuity errors : sum local = 7.21397e-11, global = 8.04099e-12, cumulative = 3.95303e-10
DICPCG:  Solving for p, Initial residual = 7.24299e-07, Final residual = 7.24299e-07, No Iterations 0
time step continuity errors : sum local = 6.64942e-11, global = 8.04099e-12, cumulative = 4.03344e-10
DICPCG:  Solving for p, Initial residual = 8.16235e-07, Final residual = 8.16235e-07, No Iterations 0
time step continuity errors : sum local = 7.49344e-11, global = 8.04099e-12, cumulative = 4.11385e-10
DICPCG:  Solving for p, Initial residual = 7.9412e-07, Final residual = 7.9412e-07, No Iterations 0
time step continuity errors : sum local = 7.29041e-11, global = 8.04099e-12, cumulative = 4.19426e-10
DICPCG:  Solving for p, Initial residual = 8.31892e-07, Final residual = 8.31892e-07, No Iterations 0
time step continuity errors : sum local = 7.63718e-11, global = 8.04099e-12, cumulative = 4.27467e-10
DICPCG:  Solving for p, Initial residual = 8.24037e-07, Final residual = 8.24037e-07, No Iterations 0
time step continuity errors : sum local = 7.56506e-11, global = 8.04099e-12, cumulative = 4.35508e-10
DICPCG:  Solving for p, Initial residual = 8.39656e-07, Final residual = 8.39656e-07, No Iterations 0
time step continuity errors : sum local = 7.70845e-11, global = 8.04099e-12, cumulative = 4.43549e-10
DICPCG:  Solving for p, Initial residual = 8.36993e-07, Final residual = 8.36993e-07, No Iterations 0
time step continuity errors : sum local = 7.684e-11, global = 8.04099e-12, cumulative = 4.5159e-10
DICPCG:  Solving for p, Initial residual = 8.43525e-07, Final residual = 8.43525e-07, No Iterations 0
time step continuity errors : sum local = 7.74398e-11, global = 8.04099e-12, cumulative = 4.59631e-10
DICPCG:  Solving for p, Initial residual = 8.42639e-07, Final residual = 8.42639e-07, No Iterations 0
time step continuity errors : sum local = 7.73584e-11, global = 8.04099e-12, cumulative = 4.67672e-10
DICPCG:  Solving for p, Initial residual = 8.45392e-07, Final residual = 8.45392e-07, No Iterations 0
time step continuity errors : sum local = 7.76111e-11, global = 8.04099e-12, cumulative = 4.75713e-10
DICPCG:  Solving for p, Initial residual = 8.45106e-07, Final residual = 8.45106e-07, No Iterations 0
time step continuity errors : sum local = 7.75848e-11, global = 8.04099e-12, cumulative = 4.83754e-10
DICPCG:  Solving for p, Initial residual = 8.46272e-07, Final residual = 8.46272e-07, No Iterations 0
time step continuity errors : sum local = 7.7692e-11, global = 8.04099e-12, cumulative = 4.91795e-10
DICPCG:  Solving for p, Initial residual = 8.46189e-07, Final residual = 8.46189e-07, No Iterations 0
time step continuity errors : sum local = 7.76843e-11, global = 8.04099e-12, cumulative = 4.99836e-10
DICPCG:  Solving for p, Initial residual = 8.46686e-07, Final residual = 8.46686e-07, No Iterations 0
time step continuity errors : sum local = 7.77299e-11, global = 8.04099e-12, cumulative = 5.07877e-10
DICPCG:  Solving for p, Initial residual = 8.46666e-07, Final residual = 8.46666e-07, No Iterations 0
time step continuity errors : sum local = 7.77281e-11, global = 8.04099e-12, cumulative = 5.15918e-10
DICPCG:  Solving for p, Initial residual = 8.46879e-07, Final residual = 8.46879e-07, No Iterations 0
time step continuity errors : sum local = 7.77477e-11, global = 8.04099e-12, cumulative = 5.23959e-10
DICPCG:  Solving for p, Initial residual = 8.46878e-07, Final residual = 8.46878e-07, No Iterations 0
time step continuity errors : sum local = 7.77475e-11, global = 8.04099e-12, cumulative = 5.32e-10
DICPCG:  Solving for p, Initial residual = 8.46969e-07, Final residual = 8.46969e-07, No Iterations 0
time step continuity errors : sum local = 7.77559e-11, global = 8.04099e-12, cumulative = 5.40041e-10
DICPCG:  Solving for p, Initial residual = 8.46971e-07, Final residual = 8.46971e-07, No Iterations 0
time step continuity errors : sum local = 7.77561e-11, global = 8.04099e-12, cumulative = 5.48082e-10
DICPCG:  Solving for p, Initial residual = 8.47011e-07, Final residual = 8.47011e-07, No Iterations 0
time step continuity errors : sum local = 7.77597e-11, global = 8.04099e-12, cumulative = 5.56123e-10
ExecutionTime = 397.29 s  ClockTime = 413 s

forceCoeffs output:
    Cd = 8.17262
    Cl = -124.665
    Cm = 3.98534

Courant Number mean: 0.0131411 max: 0.743009
Time = 0.094


Assembling Vectors for non-Inertial Forces



Creating Angular Momentum Vector Components



Creating Angular Acceleration Vector Components



Assembling Vectors



Vector Assembly Complete


DILUPBiCG:  Solving for Ux, Initial residual = 0.0110955, Final residual = 3.06552e-07, No Iterations 1
DILUPBiCG:  Solving for Uy, Initial residual = 0.0510995, Final residual = 3.81523e-06, No Iterations 1
DICPCG:  Solving for p, Initial residual = 0.0146098, Final residual = 9.81736e-07, No Iterations 280
time step continuity errors : sum local = 9.14278e-11, global = -9.89477e-13, cumulative = 5.55133e-10
DICPCG:  Solving for p, Initial residual = 8.98487e-05, Final residual = 8.76219e-07, No Iterations 114
time step continuity errors : sum local = 8.27576e-11, global = -4.7661e-13, cumulative = 5.54657e-10
DICPCG:  Solving for p, Initial residual = 1.93363e-05, Final residual = 9.99977e-07, No Iterations 35
time step continuity errors : sum local = 9.44401e-11, global = -7.55233e-13, cumulative = 5.53901e-10
DICPCG:  Solving for p, Initial residual = 8.68509e-06, Final residual = 8.99489e-07, No Iterations 21
time step continuity errors : sum local = 8.49495e-11, global = -9.25995e-13, cumulative = 5.52975e-10
DICPCG:  Solving for p, Initial residual = 4.57232e-06, Final residual = 8.57303e-07, No Iterations 10
time step continuity errors : sum local = 8.09652e-11, global = -1.08966e-12, cumulative = 5.51886e-10
DICPCG:  Solving for p, Initial residual = 2.71329e-06, Final residual = 9.66695e-07, No Iterations 13
time step continuity errors : sum local = 9.12963e-11, global = -1.07735e-12, cumulative = 5.50808e-10
DICPCG:  Solving for p, Initial residual = 2.14461e-06, Final residual = 8.81725e-07, No Iterations 1
time step continuity errors : sum local = 8.32716e-11, global = -1.1958e-12, cumulative = 5.49613e-10
DICPCG:  Solving for p, Initial residual = 1.48403e-06, Final residual = 9.64122e-07, No Iterations 3
time step continuity errors : sum local = 9.10533e-11, global = -1.22483e-12, cumulative = 5.48388e-10
DICPCG:  Solving for p, Initial residual = 8.21345e-07, Final residual = 8.21345e-07, No Iterations 0
time step continuity errors : sum local = 7.75692e-11, global = -1.22483e-12, cumulative = 5.47163e-10
DICPCG:  Solving for p, Initial residual = 1.08826e-06, Final residual = 7.96237e-07, No Iterations 1
time step continuity errors : sum local = 7.51979e-11, global = -1.35212e-12, cumulative = 5.45811e-10
DICPCG:  Solving for p, Initial residual = 9.53271e-07, Final residual = 9.53271e-07, No Iterations 0
time step continuity errors : sum local = 9.00285e-11, global = -1.35212e-12, cumulative = 5.44459e-10
DICPCG:  Solving for p, Initial residual = 9.53569e-07, Final residual = 9.53569e-07, No Iterations 0
time step continuity errors : sum local = 9.00566e-11, global = -1.35212e-12, cumulative = 5.43107e-10
DICPCG:  Solving for p, Initial residual = 1.02635e-06, Final residual = 5.35051e-07, No Iterations 1
time step continuity errors : sum local = 5.0531e-11, global = -1.39453e-12, cumulative = 5.41712e-10
DICPCG:  Solving for p, Initial residual = 6.76407e-07, Final residual = 6.76407e-07, No Iterations 0
time step continuity errors : sum local = 6.3881e-11, global = -1.39453e-12, cumulative = 5.40318e-10
DICPCG:  Solving for p, Initial residual = 7.8285e-07, Final residual = 7.8285e-07, No Iterations 0
time step continuity errors : sum local = 7.39336e-11, global = -1.39453e-12, cumulative = 5.38923e-10
DICPCG:  Solving for p, Initial residual = 8.56792e-07, Final residual = 8.56792e-07, No Iterations 0
time step continuity errors : sum local = 8.09168e-11, global = -1.39453e-12, cumulative = 5.37528e-10
DICPCG:  Solving for p, Initial residual = 9.05665e-07, Final residual = 9.05665e-07, No Iterations 0
time step continuity errors : sum local = 8.55324e-11, global = -1.39453e-12, cumulative = 5.36134e-10
DICPCG:  Solving for p, Initial residual = 9.37899e-07, Final residual = 9.37899e-07, No Iterations 0
time step continuity errors : sum local = 8.85767e-11, global = -1.39453e-12, cumulative = 5.34739e-10
DICPCG:  Solving for p, Initial residual = 9.5907e-07, Final residual = 9.5907e-07, No Iterations 0
time step continuity errors : sum local = 9.05761e-11, global = -1.39453e-12, cumulative = 5.33345e-10
DICPCG:  Solving for p, Initial residual = 9.73007e-07, Final residual = 9.73007e-07, No Iterations 0
time step continuity errors : sum local = 9.18923e-11, global = -1.39453e-12, cumulative = 5.3195e-10
DICPCG:  Solving for p, Initial residual = 9.82169e-07, Final residual = 9.82169e-07, No Iterations 0
time step continuity errors : sum local = 9.27576e-11, global = -1.39453e-12, cumulative = 5.30556e-10
DICPCG:  Solving for p, Initial residual = 9.88201e-07, Final residual = 9.88201e-07, No Iterations 0
time step continuity errors : sum local = 9.33273e-11, global = -1.39453e-12, cumulative = 5.29161e-10
DICPCG:  Solving for p, Initial residual = 9.9217e-07, Final residual = 9.9217e-07, No Iterations 0
time step continuity errors : sum local = 9.37021e-11, global = -1.39453e-12, cumulative = 5.27767e-10
DICPCG:  Solving for p, Initial residual = 9.94784e-07, Final residual = 9.94784e-07, No Iterations 0
time step continuity errors : sum local = 9.3949e-11, global = -1.39453e-12, cumulative = 5.26372e-10
DICPCG:  Solving for p, Initial residual = 9.96507e-07, Final residual = 9.96507e-07, No Iterations 0
time step continuity errors : sum local = 9.41117e-11, global = -1.39453e-12, cumulative = 5.24978e-10
DICPCG:  Solving for p, Initial residual = 9.97642e-07, Final residual = 9.97642e-07, No Iterations 0
time step continuity errors : sum local = 9.42189e-11, global = -1.39453e-12, cumulative = 5.23583e-10
DICPCG:  Solving for p, Initial residual = 9.98392e-07, Final residual = 9.98392e-07, No Iterations 0
time step continuity errors : sum local = 9.42897e-11, global = -1.39453e-12, cumulative = 5.22189e-10
DICPCG:  Solving for p, Initial residual = 9.98886e-07, Final residual = 9.98886e-07, No Iterations 0
time step continuity errors : sum local = 9.43364e-11, global = -1.39453e-12, cumulative = 5.20794e-10
DICPCG:  Solving for p, Initial residual = 9.99212e-07, Final residual = 9.99212e-07, No Iterations 0
time step continuity errors : sum local = 9.43672e-11, global = -1.39453e-12, cumulative = 5.194e-10
DICPCG:  Solving for p, Initial residual = 9.99427e-07, Final residual = 9.99427e-07, No Iterations 0
time step continuity errors : sum local = 9.43875e-11, global = -1.39453e-12, cumulative = 5.18005e-10
ExecutionTime = 404.35 s  ClockTime = 421 s

forceCoeffs output:
    Cd = 8.10055
    Cl = -123.977
    Cm = 4.05715

Courant Number mean: 0.0132485 max: 0.749987
Time = 0.096


Assembling Vectors for non-Inertial Forces



Creating Angular Momentum Vector Components



Creating Angular Acceleration Vector Components



Assembling Vectors



Vector Assembly Complete


DILUPBiCG:  Solving for Ux, Initial residual = 0.0108683, Final residual = 2.99539e-07, No Iterations 1
DILUPBiCG:  Solving for Uy, Initial residual = 0.0498798, Final residual = 3.734e-06, No Iterations 1
DICPCG:  Solving for p, Initial residual = 0.0143012, Final residual = 9.75047e-07, No Iterations 150
time step continuity errors : sum local = 9.33832e-11, global = 1.78378e-11, cumulative = 5.35843e-10
DICPCG:  Solving for p, Initial residual = 8.95494e-05, Final residual = 9.86018e-07, No Iterations 116
time step continuity errors : sum local = 9.57428e-11, global = 1.33639e-11, cumulative = 5.49207e-10
DICPCG:  Solving for p, Initial residual = 1.92354e-05, Final residual = 9.28197e-07, No Iterations 37
time step continuity errors : sum local = 9.01224e-11, global = 1.30636e-11, cumulative = 5.6227e-10
DICPCG:  Solving for p, Initial residual = 8.56869e-06, Final residual = 9.19131e-07, No Iterations 21
time step continuity errors : sum local = 8.92417e-11, global = 1.2883e-11, cumulative = 5.75153e-10
DICPCG:  Solving for p, Initial residual = 4.57211e-06, Final residual = 8.61483e-07, No Iterations 10
time step continuity errors : sum local = 8.36443e-11, global = 1.2771e-11, cumulative = 5.87924e-10
DICPCG:  Solving for p, Initial residual = 2.71242e-06, Final residual = 9.685e-07, No Iterations 4
time step continuity errors : sum local = 9.4035e-11, global = 1.27696e-11, cumulative = 6.00694e-10
DICPCG:  Solving for p, Initial residual = 1.86031e-06, Final residual = 8.80372e-07, No Iterations 1
time step continuity errors : sum local = 8.54783e-11, global = 1.25899e-11, cumulative = 6.13284e-10
DICPCG:  Solving for p, Initial residual = 1.47553e-06, Final residual = 9.88709e-07, No Iterations 15
time step continuity errors : sum local = 9.5997e-11, global = 1.26305e-11, cumulative = 6.25914e-10
DICPCG:  Solving for p, Initial residual = 1.29585e-06, Final residual = 8.7453e-07, No Iterations 1
time step continuity errors : sum local = 8.49111e-11, global = 1.2574e-11, cumulative = 6.38488e-10
DICPCG:  Solving for p, Initial residual = 1.13867e-06, Final residual = 7.24249e-07, No Iterations 8
time step continuity errors : sum local = 7.03197e-11, global = 1.25623e-11,