/*---------------------------------------------------------------------------*\
| =========                 |                                                 |
| \\      /  F ield         | OpenFOAM: The Open Source CFD Toolbox           |
|  \\    /   O peration     | Version:  2.1.0                                 |
|   \\  /    A nd           | Web:      www.OpenFOAM.org                      |
|    \\/     M anipulation  |                                                 |
\*---------------------------------------------------------------------------*/
Build  : 2.1.0-0bc225064152
Exec   : my_icoFoam
Date   : Mar 08 2012
Time   : 02:49:40
Host   : "calebspc"
PID    : 10123
Case   : /home/caleb/ellipse_temp/simulations/multi_grid
nProcs : 1
sigFpe : Enabling floating point exception trapping (FOAM_SIGFPE).
fileModificationChecking : Monitoring run-time modified files using timeStampMaster
allowSystemOperations : Disallowing user-supplied system call operations

// * * * * * * * * * * * * * * * * * * * * * * * * * * * * * * * * * * * * * //
Create time

Create mesh for time = 0

Reading transportProperties

Reading field p

Reading field U

Reading/calculating face flux field phi

Courant Number mean: 2.94282e-05 max: 0.008
/*                       |---------------------.
 * This application uses | David L. F. Gaden's |  Please cite me if possible
 *      .----------------|---------------------'  See the README for more info
 *      | equationReader |  Version:    0.5.0
 *      '----------------|
 */

Reading Equations


Starting time loop

Courant Number mean: 2.94282e-05 max: 0.008
Time = 0.002


Assembling Vectors for non-Inertial Forces



Creating Angular Momentum Vector Components



Creating Angular Acceleration Vector Components



Assembling Vectors



Vector Assembly Complete


DILUPBiCG:  Solving for Ux, Initial residual = 1, Final residual = 1.52251e-06, No Iterations 1
DILUPBiCG:  Solving for Uy, Initial residual = 1, Final residual = 0.000684952, No Iterations 1
GAMG:  Solving for p, Initial residual = 1, Final residual = 0.00604918, No Iterations 13
GAMG:  Solving for p, Initial residual = 0.000989257, Final residual = 9.22844e-06, No Iterations 9
GAMG:  Solving for p, Initial residual = 0.000391407, Final residual = 3.8642e-06, No Iterations 9
GAMG:  Solving for p, Initial residual = 0.000283191, Final residual = 1.56087e-06, No Iterations 7
GAMG:  Solving for p, Initial residual = 0.000146224, Final residual = 1.10693e-06, No Iterations 8
GAMG:  Solving for p, Initial residual = 0.000119121, Final residual = 8.94474e-07, No Iterations 6
GAMG:  Solving for p, Initial residual = 8.01784e-05, Final residual = 5.20349e-07, No Iterations 7
GAMG:  Solving for p, Initial residual = 6.23e-05, Final residual = 7.54566e-07, No Iterations 5
GAMG:  Solving for p, Initial residual = 4.95194e-05, Final residual = 5.11283e-07, No Iterations 6
GAMG:  Solving for p, Initial residual = 3.74868e-05, Final residual = 7.37969e-07, No Iterations 4
GAMG:  Solving for p, Initial residual = 3.25154e-05, Final residual = 7.75239e-07, No Iterations 5
GAMG:  Solving for p, Initial residual = 2.46614e-05, Final residual = 4.90334e-07, No Iterations 4
GAMG:  Solving for p, Initial residual = 2.21851e-05, Final residual = 9.44663e-07, No Iterations 4
GAMG:  Solving for p, Initial residual = 1.70501e-05, Final residual = 7.61908e-07, No Iterations 3
GAMG:  Solving for p, Initial residual = 1.53911e-05, Final residual = 5.63227e-07, No Iterations 4
GAMG:  Solving for p, Initial residual = 1.17907e-05, Final residual = 5.43744e-07, No Iterations 3
time step continuity errors : sum local = 2.0275e-08, global = -3.89451e-11, cumulative = -3.89451e-11
GAMG:  Solving for p, Initial residual = 0.00109015, Final residual = 6.50042e-06, No Iterations 10
GAMG:  Solving for p, Initial residual = 0.000142233, Final residual = 9.92443e-07, No Iterations 9
GAMG:  Solving for p, Initial residual = 6.36876e-05, Final residual = 7.4106e-07, No Iterations 9
GAMG:  Solving for p, Initial residual = 5.32123e-05, Final residual = 6.66868e-07, No Iterations 6
GAMG:  Solving for p, Initial residual = 3.40064e-05, Final residual = 7.42851e-07, No Iterations 6
GAMG:  Solving for p, Initial residual = 3.07836e-05, Final residual = 6.81629e-07, No Iterations 4
GAMG:  Solving for p, Initial residual = 2.29115e-05, Final residual = 7.48889e-07, No Iterations 5
GAMG:  Solving for p, Initial residual = 2.11572e-05, Final residual = 7.6992e-07, No Iterations 3
GAMG:  Solving for p, Initial residual = 1.63036e-05, Final residual = 7.79083e-07, No Iterations 4
GAMG:  Solving for p, Initial residual = 1.51391e-05, Final residual = 5.6092e-07, No Iterations 3
GAMG:  Solving for p, Initial residual = 1.19292e-05, Final residual = 9.27581e-07, No Iterations 3
GAMG:  Solving for p, Initial residual = 1.08192e-05, Final residual = 4.53069e-07, No Iterations 3
GAMG:  Solving for p, Initial residual = 8.65679e-06, Final residual = 5.81726e-07, No Iterations 3
GAMG:  Solving for p, Initial residual = 7.77186e-06, Final residual = 7.42372e-07, No Iterations 2
GAMG:  Solving for p, Initial residual = 5.8871e-06, Final residual = 8.07015e-07, No Iterations 2
GAMG:  Solving for p, Initial residual = 4.80357e-06, Final residual = 5.0498e-07, No Iterations 2
time step continuity errors : sum local = 1.85311e-08, global = 3.95762e-11, cumulative = 6.3117e-13
GAMG:  Solving for p, Initial residual = 8.42917e-05, Final residual = 8.66658e-07, No Iterations 8
GAMG:  Solving for p, Initial residual = 3.11307e-05, Final residual = 7.46833e-07, No Iterations 4
GAMG:  Solving for p, Initial residual = 1.98118e-05, Final residual = 6.94476e-07, No Iterations 5
GAMG:  Solving for p, Initial residual = 1.61056e-05, Final residual = 6.19773e-07, No Iterations 3
GAMG:  Solving for p, Initial residual = 1.30073e-05, Final residual = 6.94615e-07, No Iterations 4
GAMG:  Solving for p, Initial residual = 1.10032e-05, Final residual = 4.06269e-07, No Iterations 3
GAMG:  Solving for p, Initial residual = 9.24531e-06, Final residual = 8.00092e-07, No Iterations 3
GAMG:  Solving for p, Initial residual = 7.64965e-06, Final residual = 7.78008e-07, No Iterations 2
GAMG:  Solving for p, Initial residual = 6.14172e-06, Final residual = 9.83408e-07, No Iterations 2
GAMG:  Solving for p, Initial residual = 4.48416e-06, Final residual = 4.66555e-07, No Iterations 2
GAMG:  Solving for p, Initial residual = 3.67156e-06, Final residual = 5.71911e-07, No Iterations 2
GAMG:  Solving for p, Initial residual = 2.6985e-06, Final residual = 8.03058e-07, No Iterations 1
GAMG:  Solving for p, Initial residual = 1.99856e-06, Final residual = 7.00554e-07, No Iterations 1
GAMG:  Solving for p, Initial residual = 1.48134e-06, Final residual = 5.31692e-07, No Iterations 1
GAMG:  Solving for p, Initial residual = 1.26383e-06, Final residual = 4.81703e-07, No Iterations 1
GAMG:  Solving for p, Initial residual = 1.09474e-06, Final residual = 4.54767e-07, No Iterations 1
time step continuity errors : sum local = 1.66862e-08, global = 4.03859e-11, cumulative = 4.1017e-11
GAMG:  Solving for p, Initial residual = 3.17932e-05, Final residual = 8.26403e-07, No Iterations 7
GAMG:  Solving for p, Initial residual = 1.38278e-05, Final residual = 9.91882e-07, No Iterations 3
GAMG:  Solving for p, Initial residual = 8.12247e-06, Final residual = 7.08641e-07, No Iterations 4
GAMG:  Solving for p, Initial residual = 6.51355e-06, Final residual = 6.57897e-07, No Iterations 2
GAMG:  Solving for p, Initial residual = 5.03583e-06, Final residual = 5.2665e-07, No Iterations 3
GAMG:  Solving for p, Initial residual = 3.85693e-06, Final residual = 3.67555e-07, No Iterations 2
GAMG:  Solving for p, Initial residual = 3.22987e-06, Final residual = 5.38313e-07, No Iterations 2
GAMG:  Solving for p, Initial residual = 2.35562e-06, Final residual = 6.55044e-07, No Iterations 1
GAMG:  Solving for p, Initial residual = 1.73433e-06, Final residual = 5.82898e-07, No Iterations 1
GAMG:  Solving for p, Initial residual = 1.11654e-06, Final residual = 3.68771e-07, No Iterations 1
GAMG:  Solving for p, Initial residual = 9.30294e-07, Final residual = 9.30294e-07, No Iterations 0
GAMG:  Solving for p, Initial residual = 9.30294e-07, Final residual = 9.30294e-07, No Iterations 0
GAMG:  Solving for p, Initial residual = 9.30294e-07, Final residual = 9.30294e-07, No Iterations 0
GAMG:  Solving for p, Initial residual = 9.30294e-07, Final residual = 9.30294e-07, No Iterations 0
GAMG:  Solving for p, Initial residual = 9.30294e-07, Final residual = 9.30294e-07, No Iterations 0
GAMG:  Solving for p, Initial residual = 9.30294e-07, Final residual = 9.30294e-07, No Iterations 0
time step continuity errors : sum local = 3.41302e-08, global = 7.73143e-11, cumulative = 1.18331e-10
GAMG:  Solving for p, Initial residual = 1.58425e-05, Final residual = 7.75284e-07, No Iterations 7
GAMG:  Solving for p, Initial residual = 7.72517e-06, Final residual = 7.94148e-07, No Iterations 3
GAMG:  Solving for p, Initial residual = 4.19929e-06, Final residual = 6.25237e-07, No Iterations 3
GAMG:  Solving for p, Initial residual = 3.26775e-06, Final residual = 4.32611e-07, No Iterations 2
GAMG:  Solving for p, Initial residual = 2.51668e-06, Final residual = 4.88944e-07, No Iterations 2
GAMG:  Solving for p, Initial residual = 1.88856e-06, Final residual = 6.15958e-07, No Iterations 1
GAMG:  Solving for p, Initial residual = 1.47524e-06, Final residual = 5.17397e-07, No Iterations 1
GAMG:  Solving for p, Initial residual = 1.05835e-06, Final residual = 3.93047e-07, No Iterations 1
GAMG:  Solving for p, Initial residual = 9.37111e-07, Final residual = 9.37111e-07, No Iterations 0
GAMG:  Solving for p, Initial residual = 9.37111e-07, Final residual = 9.37111e-07, No Iterations 0
GAMG:  Solving for p, Initial residual = 9.37111e-07, Final residual = 9.37111e-07, No Iterations 0
GAMG:  Solving for p, Initial residual = 9.37111e-07, Final residual = 9.37111e-07, No Iterations 0
GAMG:  Solving for p, Initial residual = 9.37111e-07, Final residual = 9.37111e-07, No Iterations 0
GAMG:  Solving for p, Initial residual = 9.37111e-07, Final residual = 9.37111e-07, No Iterations 0
GAMG:  Solving for p, Initial residual = 9.37111e-07, Final residual = 9.37111e-07, No Iterations 0
GAMG:  Solving for p, Initial residual = 9.37111e-07, Final residual = 9.37111e-07, No Iterations 0
time step continuity errors : sum local = 3.43773e-08, global = 8.48631e-11, cumulative = 2.03194e-10
GAMG:  Solving for p, Initial residual = 8.6457e-06, Final residual = 6.40008e-07, No Iterations 7
GAMG:  Solving for p, Initial residual = 6.04421e-06, Final residual = 6.5829e-07, No Iterations 3
GAMG:  Solving for p, Initial residual = 3.07771e-06, Final residual = 6.55913e-07, No Iterations 3
GAMG:  Solving for p, Initial residual = 2.68136e-06, Final residual = 9.77912e-07, No Iterations 1
GAMG:  Solving for p, Initial residual = 1.845e-06, Final residual = 8.56186e-07, No Iterations 1
GAMG:  Solving for p, Initial residual = 1.47395e-06, Final residual = 7.03008e-07, No Iterations 1
GAMG:  Solving for p, Initial residual = 1.32605e-06, Final residual = 5.95289e-07, No Iterations 1
GAMG:  Solving for p, Initial residual = 1.12311e-06, Final residual = 5.17745e-07, No Iterations 1
GAMG:  Solving for p, Initial residual = 1.00231e-06, Final residual = 4.84587e-07, No Iterations 1
GAMG:  Solving for p, Initial residual = 9.14849e-07, Final residual = 9.14849e-07, No Iterations 0
GAMG:  Solving for p, Initial residual = 9.14849e-07, Final residual = 9.14849e-07, No Iterations 0
GAMG:  Solving for p, Initial residual = 9.14849e-07, Final residual = 9.14849e-07, No Iterations 0
GAMG:  Solving for p, Initial residual = 9.14849e-07, Final residual = 9.14849e-07, No Iterations 0
GAMG:  Solving for p, Initial residual = 9.14849e-07, Final residual = 9.14849e-07, No Iterations 0
GAMG:  Solving for p, Initial residual = 9.14849e-07, Final residual = 9.14849e-07, No Iterations 0
GAMG:  Solving for p, Initial residual = 9.14849e-07, Final residual = 9.14849e-07, No Iterations 0
time step continuity errors : sum local = 3.35582e-08, global = 2.86184e-11, cumulative = 2.31813e-10
GAMG:  Solving for p, Initial residual = 5.97582e-06, Final residual = 8.65313e-07, No Iterations 6
GAMG:  Solving for p, Initial residual = 4.77785e-06, Final residual = 6.02292e-07, No Iterations 3
GAMG:  Solving for p, Initial residual = 2.31377e-06, Final residual = 7.56906e-07, No Iterations 2
GAMG:  Solving for p, Initial residual = 2.03378e-06, Final residual = 8.27194e-07, No Iterations 1
GAMG:  Solving for p, Initial residual = 1.44609e-06, Final residual = 7.3894e-07, No Iterations 1
GAMG:  Solving for p, Initial residual = 1.24353e-06, Final residual = 5.81257e-07, No Iterations 1
GAMG:  Solving for p, Initial residual = 1.06391e-06, Final residual = 5.32814e-07, No Iterations 1
GAMG:  Solving for p, Initial residual = 9.51315e-07, Final residual = 9.51315e-07, No Iterations 0
GAMG:  Solving for p, Initial residual = 9.51315e-07, Final residual = 9.51315e-07, No Iterations 0
GAMG:  Solving for p, Initial residual = 9.51315e-07, Final residual = 9.51315e-07, No Iterations 0
GAMG:  Solving for p, Initial residual = 9.51315e-07, Final residual = 9.51315e-07, No Iterations 0
GAMG:  Solving for p, Initial residual = 9.51315e-07, Final residual = 9.51315e-07, No Iterations 0
GAMG:  Solving for p, Initial residual = 9.51315e-07, Final residual = 9.51315e-07, No Iterations 0
GAMG:  Solving for p, Initial residual = 9.51315e-07, Final residual = 9.51315e-07, No Iterations 0
GAMG:  Solving for p, Initial residual = 9.51315e-07, Final residual = 9.51315e-07, No Iterations 0
GAMG:  Solving for p, Initial residual = 9.51315e-07, Final residual = 9.51315e-07, No Iterations 0
time step continuity errors : sum local = 3.48938e-08, global = 1.91592e-11, cumulative = 2.50972e-10
GAMG:  Solving for p, Initial residual = 4.39166e-06, Final residual = 8.68892e-07, No Iterations 5
GAMG:  Solving for p, Initial residual = 4.13544e-06, Final residual = 9.88842e-07, No Iterations 2
GAMG:  Solving for p, Initial residual = 2.16548e-06, Final residual = 7.83842e-07, No Iterations 2
GAMG:  Solving for p, Initial residual = 1.87707e-06, Final residual = 8.08496e-07, No Iterations 1
GAMG:  Solving for p, Initial residual = 1.40464e-06, Final residual = 7.48374e-07, No Iterations 1
GAMG:  Solving for p, Initial residual = 1.23282e-06, Final residual = 5.92643e-07, No Iterations 1
GAMG:  Solving for p, Initial residual = 1.05058e-06, Final residual = 5.35785e-07, No Iterations 1
GAMG:  Solving for p, Initial residual = 9.2534e-07, Final residual = 9.2534e-07, No Iterations 0
GAMG:  Solving for p, Initial residual = 9.2534e-07, Final residual = 9.2534e-07, No Iterations 0
GAMG:  Solving for p, Initial residual = 9.2534e-07, Final residual = 9.2534e-07, No Iterations 0
GAMG:  Solving for p, Initial residual = 9.2534e-07, Final residual = 9.2534e-07, No Iterations 0
GAMG:  Solving for p, Initial residual = 9.2534e-07, Final residual = 9.2534e-07, No Iterations 0
GAMG:  Solving for p, Initial residual = 9.2534e-07, Final residual = 9.2534e-07, No Iterations 0
GAMG:  Solving for p, Initial residual = 9.2534e-07, Final residual = 9.2534e-07, No Iterations 0
GAMG:  Solving for p, Initial residual = 9.2534e-07, Final residual = 9.2534e-07, No Iterations 0
GAMG:  Solving for p, Initial residual = 9.2534e-07, Final residual = 9.2534e-07, No Iterations 0
time step continuity errors : sum local = 3.39394e-08, global = 1.60864e-11, cumulative = 2.67058e-10
GAMG:  Solving for p, Initial residual = 3.86294e-06, Final residual = 7.75335e-07, No Iterations 5
GAMG:  Solving for p, Initial residual = 3.35881e-06, Final residual = 8.33692e-07, No Iterations 2
GAMG:  Solving for p, Initial residual = 1.798e-06, Final residual = 6.42328e-07, No Iterations 2
GAMG:  Solving for p, Initial residual = 1.51159e-06, Final residual = 6.33742e-07, No Iterations 1
GAMG:  Solving for p, Initial residual = 1.10963e-06, Final residual = 5.85736e-07, No Iterations 1
GAMG:  Solving for p, Initial residual = 9.79039e-07, Final residual = 9.79039e-07, No Iterations 0
GAMG:  Solving for p, Initial residual = 9.79039e-07, Final residual = 9.79039e-07, No Iterations 0
GAMG:  Solving for p, Initial residual = 9.79039e-07, Final residual = 9.79039e-07, No Iterations 0
GAMG:  Solving for p, Initial residual = 9.79039e-07, Final residual = 9.79039e-07, No Iterations 0
GAMG:  Solving for p, Initial residual = 9.79039e-07, Final residual = 9.79039e-07, No Iterations 0
GAMG:  Solving for p, Initial residual = 9.79039e-07, Final residual = 9.79039e-07, No Iterations 0
GAMG:  Solving for p, Initial residual = 9.79039e-07, Final residual = 9.79039e-07, No Iterations 0
GAMG:  Solving for p, Initial residual = 9.79039e-07, Final residual = 9.79039e-07, No Iterations 0
GAMG:  Solving for p, Initial residual = 9.79039e-07, Final residual = 9.79039e-07, No Iterations 0
GAMG:  Solving for p, Initial residual = 9.79039e-07, Final residual = 9.79039e-07, No Iterations 0
GAMG:  Solving for p, Initial residual = 9.79039e-07, Final residual = 9.79039e-07, No Iterations 0
time step continuity errors : sum local = 3.59076e-08, global = 1.09455e-11, cumulative = 2.78004e-10
GAMG:  Solving for p, Initial residual = 3.22971e-06, Final residual = 6.65881e-07, No Iterations 5
GAMG:  Solving for p, Initial residual = 2.94856e-06, Final residual = 7.28524e-07, No Iterations 2
GAMG:  Solving for p, Initial residual = 1.60745e-06, Final residual = 5.7378e-07, No Iterations 2
GAMG:  Solving for p, Initial residual = 1.38649e-06, Final residual = 5.97712e-07, No Iterations 1
GAMG:  Solving for p, Initial residual = 1.0543e-06, Final residual = 5.58076e-07, No Iterations 1
GAMG:  Solving for p, Initial residual = 9.44052e-07, Final residual = 9.44052e-07, No Iterations 0
GAMG:  Solving for p, Initial residual = 9.44052e-07, Final residual = 9.44052e-07, No Iterations 0
GAMG:  Solving for p, Initial residual = 9.44052e-07, Final residual = 9.44052e-07, No Iterations 0
GAMG:  Solving for p, Initial residual = 9.44052e-07, Final residual = 9.44052e-07, No Iterations 0
GAMG:  Solving for p, Initial residual = 9.44052e-07, Final residual = 9.44052e-07, No Iterations 0
GAMG:  Solving for p, Initial residual = 9.44052e-07, Final residual = 9.44052e-07, No Iterations 0
GAMG:  Solving for p, Initial residual = 9.44052e-07, Final residual = 9.44052e-07, No Iterations 0
GAMG:  Solving for p, Initial residual = 9.44052e-07, Final residual = 9.44052e-07, No Iterations 0
GAMG:  Solving for p, Initial residual = 9.44052e-07, Final residual = 9.44052e-07, No Iterations 0
GAMG:  Solving for p, Initial residual = 9.44052e-07, Final residual = 9.44052e-07, No Iterations 0
GAMG:  Solving for p, Initial residual = 9.44052e-07, Final residual = 9.44052e-07, No Iterations 0
time step continuity errors : sum local = 3.46232e-08, global = 9.1419e-12, cumulative = 2.87146e-10
ExecutionTime = 12.12 s  ClockTime = 12 s

forceCoeffs output:
    Cd = 1005.04
    Cl = -3.41159
    Cm = 0.0553701

Courant Number mean: 0.0236512 max: 0.50833
Time = 0.004


Assembling Vectors for non-Inertial Forces



Creating Angular Momentum Vector Components



Creating Angular Acceleration Vector Components



Assembling Vectors



Vector Assembly Complete


DILUPBiCG:  Solving for Ux, Initial residual = 0.922031, Final residual = 0.000599752, No Iterations 1
DILUPBiCG:  Solving for Uy, Initial residual = 0.343477, Final residual = 0.0112968, No Iterations 1
GAMG:  Solving for p, Initial residual = 0.00209625, Final residual = 8.86057e-06, No Iterations 13
GAMG:  Solving for p, Initial residual = 0.0462855, Final residual = 0.000409579, No Iterations 9
GAMG:  Solving for p, Initial residual = 0.0189153, Final residual = 0.000156154, No Iterations 10
GAMG:  Solving for p, Initial residual = 0.0135236, Final residual = 7.1485e-05, No Iterations 7
GAMG:  Solving for p, Initial residual = 0.00707164, Final residual = 5.95466e-05, No Iterations 8
GAMG:  Solving for p, Initial residual = 0.00577581, Final residual = 5.2439e-05, No Iterations 6
GAMG:  Solving for p, Initial residual = 0.00391005, Final residual = 2.87257e-05, No Iterations 7
GAMG:  Solving for p, Initial residual = 0.00311557, Final residual = 2.4332e-05, No Iterations 6
GAMG:  Solving for p, Initial residual = 0.00240758, Final residual = 2.09255e-05, No Iterations 6
GAMG:  Solving for p, Initial residual = 0.00190512, Final residual = 1.13772e-05, No Iterations 6
GAMG:  Solving for p, Initial residual = 0.00161216, Final residual = 1.29015e-05, No Iterations 6
GAMG:  Solving for p, Initial residual = 0.00125332, Final residual = 7.14466e-06, No Iterations 6
GAMG:  Solving for p, Initial residual = 0.00113847, Final residual = 7.49525e-06, No Iterations 6
GAMG:  Solving for p, Initial residual = 0.000871433, Final residual = 5.10139e-06, No Iterations 6
GAMG:  Solving for p, Initial residual = 0.000830437, Final residual = 5.02642e-06, No Iterations 6
GAMG:  Solving for p, Initial residual = 0.000632923, Final residual = 3.92715e-06, No Iterations 6
time step continuity errors : sum local = 3.17107e-09, global = 1.33562e-12, cumulative = 2.88481e-10
GAMG:  Solving for p, Initial residual = 0.0604873, Final residual = 0.000338378, No Iterations 10
GAMG:  Solving for p, Initial residual = 0.0737065, Final residual = 0.000640386, No Iterations 8
GAMG:  Solving for p, Initial residual = 0.0349109, Final residual = 0.000316561, No Iterations 10
GAMG:  Solving for p, Initial residual = 0.0305542, Final residual = 0.000136303, No Iterations 7
GAMG:  Solving for p, Initial residual = 0.0204796, Final residual = 0.000134936, No Iterations 8
GAMG:  Solving for p, Initial residual = 0.019087, Final residual = 0.000154975, No Iterations 6
GAMG:  Solving for p, Initial residual = 0.0138996, Final residual = 8.73785e-05, No Iterations 7
GAMG:  Solving for p, Initial residual = 0.0131389, Final residual = 7.80615e-05, No Iterations 6
GAMG:  Solving for p, Initial residual = 0.00997247, Final residual = 8.18027e-05, No Iterations 6
GAMG:  Solving for p, Initial residual = 0.00948747, Final residual = 8.83166e-05, No Iterations 5
GAMG:  Solving for p, Initial residual = 0.00743648, Final residual = 4.631e-05, No Iterations 6
GAMG:  Solving for p, Initial residual = 0.00704529, Final residual = 5.84637e-05, No Iterations 5
GAMG:  Solving for p, Initial residual = 0.00569598, Final residual = 2.85751e-05, No Iterations 6
GAMG:  Solving for p, Initial residual = 0.00535825, Final residual = 4.1978e-05, No Iterations 5
GAMG:  Solving for p, Initial residual = 0.00444281, Final residual = 2.01266e-05, No Iterations 6
GAMG:  Solving for p, Initial residual = 0.00415409, Final residual = 3.07542e-05, No Iterations 5
time step continuity errors : sum local = 2.13802e-09, global = -1.5559e-14, cumulative = 2.88466e-10
GAMG:  Solving for p, Initial residual = 0.0635553, Final residual = 0.000386996, No Iterations 9
GAMG:  Solving for p, Initial residual = 0.0236895, Final residual = 0.000223552, No Iterations 5
GAMG:  Solving for p, Initial residual = 0.0139965, Final residual = 7.82112e-05, No Iterations 8
GAMG:  Solving for p, Initial residual = 0.0113626, Final residual = 7.01418e-05, No Iterations 5
GAMG:  Solving for p, Initial residual = 0.00930974, Final residual = 4.52877e-05, No Iterations 8
GAMG:  Solving for p, Initial residual = 0.00766587, Final residual = 5.01739e-05, No Iterations 5
GAMG:  Solving for p, Initial residual = 0.00671567, Final residual = 3.63525e-05, No Iterations 8
GAMG:  Solving for p, Initial residual = 0.0054628, Final residual = 3.63479e-05, No Iterations 5
GAMG:  Solving for p, Initial residual = 0.00494281, Final residual = 4.8478e-05, No Iterations 7
GAMG:  Solving for p, Initial residual = 0.00402666, Final residual = 2.70149e-05, No Iterations 5
GAMG:  Solving for p, Initial residual = 0.00371357, Final residual = 3.45897e-05, No Iterations 6
GAMG:  Solving for p, Initial residual = 0.00303931, Final residual = 1.98527e-05, No Iterations 5
GAMG:  Solving for p, Initial residual = 0.00283636, Final residual = 2.44857e-05, No Iterations 6
GAMG:  Solving for p, Initial residual = 0.00234128, Final residual = 1.49168e-05, No Iterations 5
GAMG:  Solving for p, Initial residual = 0.00219847, Final residual = 1.56874e-05, No Iterations 6
GAMG:  Solving for p, Initial residual = 0.00182723, Final residual = 1.16937e-05, No Iterations 5
time step continuity errors : sum local = 6.73271e-10, global = -6.21474e-15, cumulative = 2.8846e-10
GAMG:  Solving for p, Initial residual = 0.0266606, Final residual = 0.000222235, No Iterations 9
GAMG:  Solving for p, Initial residual = 0.0111363, Final residual = 7.63541e-05, No Iterations 6
GAMG:  Solving for p, Initial residual = 0.00748697, Final residual = 7.42508e-05, No Iterations 6
GAMG:  Solving for p, Initial residual = 0.00633375, Final residual = 5.92746e-05, No Iterations 5
GAMG:  Solving for p, Initial residual = 0.00537027, Final residual = 4.70373e-05, No Iterations 6
GAMG:  Solving for p, Initial residual = 0.00458349, Final residual = 4.34681e-05, No Iterations 5
GAMG:  Solving for p, Initial residual = 0.00401934, Final residual = 2.87112e-05, No Iterations 6
GAMG:  Solving for p, Initial residual = 0.00348534, Final residual = 1.71565e-05, No Iterations 6
GAMG:  Solving for p, Initial residual = 0.0030863, Final residual = 1.94761e-05, No Iterations 6
GAMG:  Solving for p, Initial residual = 0.00271296, Final residual = 1.38413e-05, No Iterations 6
GAMG:  Solving for p, Initial residual = 0.00240485, Final residual = 1.38319e-05, No Iterations 6
GAMG:  Solving for p, Initial residual = 0.00214092, Final residual = 1.10807e-05, No Iterations 6
GAMG:  Solving for p, Initial residual = 0.00189704, Final residual = 1.0555e-05, No Iterations 6
GAMG:  Solving for p, Initial residual = 0.0017033, Final residual = 8.88923e-06, No Iterations 6
GAMG:  Solving for p, Initial residual = 0.00150921, Final residual = 8.10636e-06, No Iterations 6
GAMG:  Solving for p, Initial residual = 0.00136213, Final residual = 6.98778e-06, No Iterations 6
time step continuity errors : sum local = 3.76167e-10, global = 1.61257e-14, cumulative = 2.88476e-10
GAMG:  Solving for p, Initial residual = 0.0128329, Final residual = 0.000125147, No Iterations 12
GAMG:  Solving for p, Initial residual = 0.00604365, Final residual = 3.91852e-05, No Iterations 7
GAMG:  Solving for p, Initial residual = 0.00360511, Final residual = 2.63478e-05, No Iterations 6
GAMG:  Solving for p, Initial residual = 0.00307638, Final residual = 1.94929e-05, No Iterations 6
GAMG:  Solving for p, Initial residual = 0.00255435, Final residual = 1.44084e-05, No Iterations 6
GAMG:  Solving for p, Initial residual = 0.0022923, Final residual = 2.27559e-05, No Iterations 5
GAMG:  Solving for p, Initial residual = 0.00198482, Final residual = 1.89269e-05, No Iterations 5
GAMG:  Solving for p, Initial residual = 0.0017885, Final residual = 1.64117e-05, No Iterations 5
GAMG:  Solving for p, Initial residual = 0.00157121, Final residual = 1.3638e-05, No Iterations 5
GAMG:  Solving for p, Initial residual = 0.00141935, Final residual = 1.24818e-05, No Iterations 5
GAMG:  Solving for p, Initial residual = 0.00125881, Final residual = 1.05295e-05, No Iterations 5
GAMG:  Solving for p, Initial residual = 0.00113787, Final residual = 9.67328e-06, No Iterations 5
GAMG:  Solving for p, Initial residual = 0.00101611, Final residual = 8.28901e-06, No Iterations 5
GAMG:  Solving for p, Initial residual = 0.000918978, Final residual = 7.68006e-06, No Iterations 5
GAMG:  Solving for p, Initial residual = 0.000824901, Final residual = 6.64802e-06, No Iterations 5
GAMG:  Solving for p, Initial residual = 0.000746011, Final residual = 6.09586e-06, No Iterations 5
time step continuity errors : sum local = 3.11047e-10, global = -3.48201e-14, cumulative = 2.88441e-10
GAMG:  Solving for p, Initial residual = 0.00719025, Final residual = 6.34936e-05, No Iterations 14
GAMG:  Solving for p, Initial residual = 0.00356385, Final residual = 3.44293e-05, No Iterations 6
GAMG:  Solving for p, Initial residual = 0.0017619, Final residual = 1.57803e-05, No Iterations 8
GAMG:  Solving for p, Initial residual = 0.00157306, Final residual = 1.02206e-05, No Iterations 6
GAMG:  Solving for p, Initial residual = 0.00119452, Final residual = 8.29722e-06, No Iterations 7
GAMG:  Solving for p, Initial residual = 0.00107782, Final residual = 9.70813e-06, No Iterations 5
GAMG:  Solving for p, Initial residual = 0.000897581, Final residual = 7.84845e-06, No Iterations 6
GAMG:  Solving for p, Initial residual = 0.00081974, Final residual = 6.63345e-06, No Iterations 5
GAMG:  Solving for p, Initial residual = 0.000703324, Final residual = 4.92831e-06, No Iterations 6
GAMG:  Solving for p, Initial residual = 0.000645319, Final residual = 4.72973e-06, No Iterations 5
GAMG:  Solving for p, Initial residual = 0.000565848, Final residual = 3.07968e-06, No Iterations 6
GAMG:  Solving for p, Initial residual = 0.00051665, Final residual = 3.59858e-06, No Iterations 5
GAMG:  Solving for p, Initial residual = 0.000460818, Final residual = 3.93758e-06, No Iterations 5
GAMG:  Solving for p, Initial residual = 0.000416995, Final residual = 2.7299e-06, No Iterations 5
GAMG:  Solving for p, Initial residual = 0.000376559, Final residual = 2.89677e-06, No Iterations 5
GAMG:  Solving for p, Initial residual = 0.00033891, Final residual = 2.17425e-06, No Iterations 5
time step continuity errors : sum local = 1.07513e-10, global = 3.02891e-13, cumulative = 2.88744e-10
GAMG:  Solving for p, Initial residual = 0.00382238, Final residual = 2.9253e-05, No Iterations 17
GAMG:  Solving for p, Initial residual = 0.00242501, Final residual = 2.15346e-05, No Iterations 6
GAMG:  Solving for p, Initial residual = 0.00107829, Final residual = 9.367e-06, No Iterations 8
GAMG:  Solving for p, Initial residual = 0.000943424, Final residual = 6.59386e-06, No Iterations 6
GAMG:  Solving for p, Initial residual = 0.000713534, Final residual = 4.17862e-06, No Iterations 7
GAMG:  Solving for p, Initial residual = 0.000654578, Final residual = 5.10776e-06, No Iterations 5
GAMG:  Solving for p, Initial residual = 0.000548115, Final residual = 3.54925e-06, No Iterations 6
GAMG:  Solving for p, Initial residual = 0.000500586, Final residual = 3.28698e-06, No Iterations 5
GAMG:  Solving for p, Initial residual = 0.000434299, Final residual = 2.52729e-06, No Iterations 6
GAMG:  Solving for p, Initial residual = 0.00039521, Final residual = 2.18618e-06, No Iterations 5
GAMG:  Solving for p, Initial residual = 0.000349307, Final residual = 1.75927e-06, No Iterations 6
GAMG:  Solving for p, Initial residual = 0.00031689, Final residual = 1.57709e-06, No Iterations 5
GAMG:  Solving for p, Initial residual = 0.000283633, Final residual = 2.55654e-06, No Iterations 5
GAMG:  Solving for p, Initial residual = 0.000256458, Final residual = 1.10686e-06, No Iterations 5
GAMG:  Solving for p, Initial residual = 0.000231035, Final residual = 1.84609e-06, No Iterations 5
GAMG:  Solving for p, Initial residual = 0.000208355, Final residual = 2.06872e-06, No Iterations 4
time step continuity errors : sum local = 9.96137e-11, global = 1.63256e-14, cumulative = 2.8876e-10
GAMG:  Solving for p, Initial residual = 0.00284452, Final residual = 2.62709e-05, No Iterations 17
GAMG:  Solving for p, Initial residual = 0.0018768, Final residual = 9.44424e-06, No Iterations 7
GAMG:  Solving for p, Initial residual = 0.000780099, Final residual = 7.79349e-06, No Iterations 9
GAMG:  Solving for p, Initial residual = 0.000682403, Final residual = 3.235e-06, No Iterations 7
GAMG:  Solving for p, Initial residual = 0.000500402, Final residual = 4.78314e-06, No Iterations 7
GAMG:  Solving for p, Initial residual = 0.000441709, Final residual = 3.51486e-06, No Iterations 6
GAMG:  Solving for p, Initial residual = 0.000365326, Final residual = 3.08113e-06, No Iterations 6
GAMG:  Solving for p, Initial residual = 0.000324929, Final residual = 2.86038e-06, No Iterations 5
GAMG:  Solving for p, Initial residual = 0.000278249, Final residual = 2.09533e-06, No Iterations 6
GAMG:  Solving for p, Initial residual = 0.000251268, Final residual = 1.92537e-06, No Iterations 5
GAMG:  Solving for p, Initial residual = 0.000218014, Final residual = 1.39953e-06, No Iterations 6
GAMG:  Solving for p, Initial residual = 0.000198996, Final residual = 1.33531e-06, No Iterations 5
GAMG:  Solving for p, Initial residual = 0.000175101, Final residual = 1.69652e-06, No Iterations 5
GAMG:  Solving for p, Initial residual = 0.000160217, Final residual = 9.32013e-07, No Iterations 5
GAMG:  Solving for p, Initial residual = 0.000142737, Final residual = 1.15234e-06, No Iterations 5
GAMG:  Solving for p, Initial residual = 0.000130082, Final residual = 6.95601e-07, No Iterations 5
time step continuity errors : sum local = 3.28366e-11, global = -4.10827e-16, cumulative = 2.8876e-10
GAMG:  Solving for p, Initial residual = 0.00182692, Final residual = 1.49845e-05, No Iterations 19
GAMG:  Solving for p, Initial residual = 0.00138899, Final residual = 9.99283e-06, No Iterations 7
GAMG:  Solving for p, Initial residual = 0.000523113, Final residual = 4.69278e-06, No Iterations 10
GAMG:  Solving for p, Initial residual = 0.000429907, Final residual = 4.03669e-06, No Iterations 6
GAMG:  Solving for p, Initial residual = 0.000307841, Final residual = 2.65224e-06, No Iterations 7
GAMG:  Solving for p, Initial residual = 0.000266741, Final residual = 2.43397e-06, No Iterations 6
GAMG:  Solving for p, Initial residual = 0.00021993, Final residual = 2.14083e-06, No Iterations 6
GAMG:  Solving for p, Initial residual = 0.000188992, Final residual = 1.50523e-06, No Iterations 6
GAMG:  Solving for p, Initial residual = 0.000165412, Final residual = 1.49591e-06, No Iterations 6
GAMG:  Solving for p, Initial residual = 0.000141956, Final residual = 1.18972e-06, No Iterations 5
GAMG:  Solving for p, Initial residual = 0.00012771, Final residual = 9.7802e-07, No Iterations 6
GAMG:  Solving for p, Initial residual = 0.000110313, Final residual = 8.58355e-07, No Iterations 5
GAMG:  Solving for p, Initial residual = 0.000100623, Final residual = 6.39415e-07, No Iterations 6
GAMG:  Solving for p, Initial residual = 8.76693e-05, Final residual = 6.36578e-07, No Iterations 5
GAMG:  Solving for p, Initial residual = 8.05185e-05, Final residual = 7.83459e-07, No Iterations 5
GAMG:  Solving for p, Initial residual = 7.07949e-05, Final residual = 5.0436e-07, No Iterations 5
time step continuity errors : sum local = 2.34062e-11, global = 3.53451e-16, cumulative = 2.8876e-10
GAMG:  Solving for p, Initial residual = 0.00147489, Final residual = 1.30369e-05, No Iterations 19
GAMG:  Solving for p, Initial residual = 0.00115076, Final residual = 6.12445e-06, No Iterations 7
GAMG:  Solving for p, Initial residual = 0.000426505, Final residual = 3.35831e-06, No Iterations 11
GAMG:  Solving for p, Initial residual = 0.000350083, Final residual = 2.19453e-06, No Iterations 7
GAMG:  Solving for p, Initial residual = 0.00023553, Final residual = 1.89403e-06, No Iterations 8
GAMG:  Solving for p, Initial residual = 0.000201132, Final residual = 1.06943e-06, No Iterations 7
GAMG:  Solving for p, Initial residual = 0.000155901, Final residual = 1.21506e-06, No Iterations 7
GAMG:  Solving for p, Initial residual = 0.000133191, Final residual = 6.59312e-07, No Iterations 7
GAMG:  Solving for p, Initial residual = 0.000112781, Final residual = 9.33961e-07, No Iterations 7
GAMG:  Solving for p, Initial residual = 9.50407e-05, Final residual = 7.75844e-07, No Iterations 6
GAMG:  Solving for p, Initial residual = 8.53773e-05, Final residual = 7.94856e-07, No Iterations 6
GAMG:  Solving for p, Initial residual = 7.19992e-05, Final residual = 7.56768e-07, No Iterations 5
GAMG:  Solving for p, Initial residual = 6.6584e-05, Final residual = 9.59844e-07, No Iterations 5
GAMG:  Solving for p, Initial residual = 5.65533e-05, Final residual = 5.92317e-07, No Iterations 5
GAMG:  Solving for p, Initial residual = 5.29034e-05, Final residual = 6.58243e-07, No Iterations 5
GAMG:  Solving for p, Initial residual = 4.52216e-05, Final residual = 8.18658e-07, No Iterations 4
time step continuity errors : sum local = 3.74962e-11, global = -4.57799e-14, cumulative = 2.88714e-10
ExecutionTime = 41.25 s  ClockTime = 41 s

forceCoeffs output:
    Cd = 3.15659
    Cl = -2.48706
    Cm = -0.00672401

Courant Number mean: 0.0236598 max: 0.285004
Time = 0.006


Assembling Vectors for non-Inertial Forces



Creating Angular Momentum Vector Components



Creating Angular Acceleration Vector Components



Assembling Vectors



Vector Assembly Complete


DILUPBiCG:  Solving for Ux, Initial residual = 0.0273424, Final residual = 0.000635631, No Iterations 1
DILUPBiCG:  Solving for Uy, Initial residual = 0.184819, Final residual = 0.00287339, No Iterations 1
GAMG:  Solving for p, Initial residual = 0.337776, Final residual = 0.00222734, No Iterations 8
GAMG:  Solving for p, Initial residual = 0.0985662, Final residual = 0.000806199, No Iterations 7
GAMG:  Solving for p, Initial residual = 0.0431897, Final residual = 0.000377858, No Iterations 7
GAMG:  Solving for p, Initial residual = 0.0289181, Final residual = 0.000226387, No Iterations 6
GAMG:  Solving for p, Initial residual = 0.0179394, Final residual = 0.00017299, No Iterations 6
GAMG:  Solving for p, Initial residual = 0.014817, Final residual = 0.000119242, No Iterations 6
GAMG:  Solving for p, Initial residual = 0.0105057, Final residual = 5.24769e-05, No Iterations 7
GAMG:  Solving for p, Initial residual = 0.00890318, Final residual = 7.96387e-05, No Iterations 5
GAMG:  Solving for p, Initial residual = 0.00680424, Final residual = 5.62518e-05, No Iterations 6
GAMG:  Solving for p, Initial residual = 0.00592531, Final residual = 4.5525e-05, No Iterations 5
GAMG:  Solving for p, Initial residual = 0.00471667, Final residual = 3.02149e-05, No Iterations 6
GAMG:  Solving for p, Initial residual = 0.00418528, Final residual = 2.91865e-05, No Iterations 5
GAMG:  Solving for p, Initial residual = 0.0034763, Final residual = 1.78925e-05, No Iterations 6
GAMG:  Solving for p, Initial residual = 0.00310237, Final residual = 2.05144e-05, No Iterations 5
GAMG:  Solving for p, Initial residual = 0.00266597, Final residual = 2.4652e-05, No Iterations 5
GAMG:  Solving for p, Initial residual = 0.00239196, Final residual = 1.61121e-05, No Iterations 5
time step continuity errors : sum local = 7.07543e-10, global = -5.14195e-13, cumulative = 2.882e-10
GAMG:  Solving for p, Initial residual = 0.105448, Final residual = 0.000777401, No Iterations 8
GAMG:  Solving for p, Initial residual = 0.0474899, Final residual = 0.000225146, No Iterations 7
GAMG:  Solving for p, Initial residual = 0.0230773, Final residual = 0.000197624, No Iterations 8
GAMG:  Solving for p, Initial residual = 0.0194676, Final residual = 0.000151622, No Iterations 6
GAMG:  Solving for p, Initial residual = 0.0121463, Final residual = 0.000119443, No Iterations 7
GAMG:  Solving for p, Initial residual = 0.0112541, Final residual = 9.90205e-05, No Iterations 6
GAMG:  Solving for p, Initial residual = 0.00788867, Final residual = 5.16629e-05, No Iterations 7
GAMG:  Solving for p, Initial residual = 0.00717361, Final residual = 6.68975e-05, No Iterations 5
GAMG:  Solving for p, Initial residual = 0.00540981, Final residual = 3.24171e-05, No Iterations 7
GAMG:  Solving for p, Initial residual = 0.00488382, Final residual = 4.12028e-05, No Iterations 5
GAMG:  Solving for p, Initial residual = 0.00387634, Final residual = 2.04068e-05, No Iterations 7
GAMG:  Solving for p, Initial residual = 0.00348208, Final residual = 2.69557e-05, No Iterations 5
GAMG:  Solving for p, Initial residual = 0.00286304, Final residual = 2.46485e-05, No Iterations 6
GAMG:  Solving for p, Initial residual = 0.00257365, Final residual = 1.8898e-05, No Iterations 5
GAMG:  Solving for p, Initial residual = 0.00216071, Final residual = 1.62223e-05, No Iterations 6
GAMG:  Solving for p, Initial residual = 0.00194828, Final residual = 1.40965e-05, No Iterations 5
time step continuity errors : sum local = 5.04549e-10, global = 1.64164e-13, cumulative = 2.88364e-10
GAMG:  Solving for p, Initial residual = 0.0307672, Final residual = 0.000298889, No Iterations 8
GAMG:  Solving for p, Initial residual = 0.013085, Final residual = 9.21751e-05, No Iterations 6
GAMG:  Solving for p, Initial residual = 0.00791029, Final residual = 7.88744e-05, No Iterations 7
GAMG:  Solving for p, Initial residual = 0.00692942, Final residual = 6.35967e-05, No Iterations 4
GAMG:  Solving for p, Initial residual = 0.00529306, Final residual = 4.52465e-05, No Iterations 6
GAMG:  Solving for p, Initial residual = 0.00486747, Final residual = 4.0113e-05, No Iterations 4
GAMG:  Solving for p, Initial residual = 0.00388135, Final residual = 3.18146e-05, No Iterations 6
GAMG:  Solving for p, Initial residual = 0.0036001, Final residual = 2.92978e-05, No Iterations 4
GAMG:  Solving for p, Initial residual = 0.0029369, Final residual = 2.19105e-05, No Iterations 6
GAMG:  Solving for p, Initial residual = 0.00273496, Final residual = 2.18927e-05, No Iterations 4
GAMG:  Solving for p, Initial residual = 0.00227629, Final residual = 1.50474e-05, No Iterations 6
GAMG:  Solving for p, Initial residual = 0.00212439, Final residual = 1.73937e-05, No Iterations 4
GAMG:  Solving for p, Initial residual = 0.00180155, Final residual = 1.04923e-05, No Iterations 6
GAMG:  Solving for p, Initial residual = 0.00167613, Final residual = 1.4285e-05, No Iterations 4
GAMG:  Solving for p, Initial residual = 0.00144351, Final residual = 7.6243e-06, No Iterations 6
GAMG:  Solving for p, Initial residual = 0.00133866, Final residual = 1.16595e-05, No Iterations 4
time step continuity errors : sum local = 4.04254e-10, global = 3.88061e-13, cumulative = 2.88752e-10
GAMG:  Solving for p, Initial residual = 0.00977133, Final residual = 6.91022e-05, No Iterations 7
GAMG:  Solving for p, Initial residual = 0.00473021, Final residual = 3.78097e-05, No Iterations 5
GAMG:  Solving for p, Initial residual = 0.0028354, Final residual = 1.75308e-05, No Iterations 7
GAMG:  Solving for p, Initial residual = 0.00256507, Final residual = 1.27851e-05, No Iterations 5
GAMG:  Solving for p, Initial residual = 0.00196018, Final residual = 1.81861e-05, No Iterations 6
GAMG:  Solving for p, Initial residual = 0.00176025, Final residual = 9.7035e-06, No Iterations 5
GAMG:  Solving for p, Initial residual = 0.00143971, Final residual = 1.20098e-05, No Iterations 6
GAMG:  Solving for p, Initial residual = 0.00128448, Final residual = 7.90757e-06, No Iterations 5
GAMG:  Solving for p, Initial residual = 0.00108514, Final residual = 1.01325e-05, No Iterations 5
GAMG:  Solving for p, Initial residual = 0.00096623, Final residual = 5.84045e-06, No Iterations 5
GAMG:  Solving for p, Initial residual = 0.000829744, Final residual = 7.18472e-06, No Iterations 5
GAMG:  Solving for p, Initial residual = 0.00074253, Final residual = 4.61297e-06, No Iterations 5
GAMG:  Solving for p, Initial residual = 0.000642903, Final residual = 5.98108e-06, No Iterations 5
GAMG:  Solving for p, Initial residual = 0.000579385, Final residual = 3.64436e-06, No Iterations 5
GAMG:  Solving for p, Initial residual = 0.000504257, Final residual = 4.27226e-06, No Iterations 5
GAMG:  Solving for p, Initial residual = 0.000456171, Final residual = 2.79309e-06, No Iterations 5
time step continuity errors : sum local = 9.64262e-11, global = -2.29162e-15, cumulative = 2.8875e-10
GAMG:  Solving for p, Initial residual = 0.00388883, Final residual = 3.17603e-05, No Iterations 8
GAMG:  Solving for p, Initial residual = 0.00211337, Final residual = 1.76216e-05, No Iterations 7
GAMG:  Solving for p, Initial residual = 0.00140566, Final residual = 8.35312e-06, No Iterations 6
GAMG:  Solving for p, Initial residual = 0.00127536, Final residual = 1.13796e-05, No Iterations 5
GAMG:  Solving for p, Initial residual = 0.00104123, Final residual = 9.57229e-06, No Iterations 5
GAMG:  Solving for p, Initial residual = 0.000961263, Final residual = 7.69238e-06, No Iterations 5
GAMG:  Solving for p, Initial residual = 0.000810159, Final residual = 6.11337e-06, No Iterations 5
GAMG:  Solving for p, Initial residual = 0.000746374, Final residual = 5.43292e-06, No Iterations 5
GAMG:  Solving for p, Initial residual = 0.000640458, Final residual = 4.9221e-06, No Iterations 5
GAMG:  Solving for p, Initial residual = 0.000589342, Final residual = 4.25579e-06, No Iterations 5
GAMG:  Solving for p, Initial residual = 0.000511704, Final residual = 3.58657e-06, No Iterations 5
GAMG:  Solving for p, Initial residual = 0.000469672, Final residual = 3.22419e-06, No Iterations 5
GAMG:  Solving for p, Initial residual = 0.000411557, Final residual = 2.71599e-06, No Iterations 5
GAMG:  Solving for p, Initial residual = 0.000377608, Final residual = 2.47317e-06, No Iterations 5
GAMG:  Solving for p, Initial residual = 0.000333113, Final residual = 2.10384e-06, No Iterations 5
GAMG:  Solving for p, Initial residual = 0.000305588, Final residual = 1.97956e-06, No Iterations 5
time step continuity errors : sum local = 6.85073e-11, global = -1.75615e-13, cumulative = 2.88574e-10
GAMG:  Solving for p, Initial residual = 0.00190903, Final residual = 1.328e-05, No Iterations 8
GAMG:  Solving for p, Initial residual = 0.00103918, Final residual = 8.04483e-06, No Iterations 5
GAMG:  Solving for p, Initial residual = 0.000690543, Final residual = 3.82097e-06, No Iterations 7
GAMG:  Solving for p, Initial residual = 0.000655806, Final residual = 3.27096e-06, No Iterations 5
GAMG:  Solving for p, Initial residual = 0.000534925, Final residual = 4.79989e-06, No Iterations 5
GAMG:  Solving for p, Initial residual = 0.000503779, Final residual = 2.24152e-06, No Iterations 5
GAMG:  Solving for p, Initial residual = 0.000427161, Final residual = 2.53869e-06, No Iterations 5
GAMG:  Solving for p, Initial residual = 0.00039963, Final residual = 1.65162e-06, No Iterations 5
GAMG:  Solving for p, Initial residual = 0.000344678, Final residual = 1.92134e-06, No Iterations 5
GAMG:  Solving for p, Initial residual = 0.000321889, Final residual = 2.9372e-06, No Iterations 4
GAMG:  Solving for p, Initial residual = 0.000278147, Final residual = 1.48523e-06, No Iterations 5
GAMG:  Solving for p, Initial residual = 0.000259371, Final residual = 2.35259e-06, No Iterations 4
GAMG:  Solving for p, Initial residual = 0.000225696, Final residual = 1.18342e-06, No Iterations 5
GAMG:  Solving for p, Initial residual = 0.000209837, Final residual = 1.89789e-06, No Iterations 4
GAMG:  Solving for p, Initial residual = 0.000183703, Final residual = 8.94752e-07, No Iterations 5
GAMG:  Solving for p, Initial residual = 0.00017026, Final residual = 1.55649e-06, No Iterations 4
time step continuity errors : sum local = 5.38957e-11, global = 4.86735e-14, cumulative = 2.88623e-10
GAMG:  Solving for p, Initial residual = 0.000790088, Final residual = 7.15661e-06, No Iterations 11
GAMG:  Solving for p, Initial residual = 0.000406018, Final residual = 1.57265e-06, No Iterations 7
GAMG:  Solving for p, Initial residual = 0.000240334, Final residual = 1.59567e-06, No Iterations 6
GAMG:  Solving for p, Initial residual = 0.000222615, Final residual = 1.82861e-06, No Iterations 4
GAMG:  Solving for p, Initial residual = 0.000175819, Final residual = 1.75424e-06, No Iterations 5
GAMG:  Solving for p, Initial residual = 0.000166177, Final residual = 1.43625e-06, No Iterations 4
GAMG:  Solving for p, Initial residual = 0.000137807, Final residual = 1.03499e-06, No Iterations 5
GAMG:  Solving for p, Initial residual = 0.000128748, Final residual = 1.13181e-06, No Iterations 4
GAMG:  Solving for p, Initial residual = 0.000109331, Final residual = 7.62651e-07, No Iterations 5
GAMG:  Solving for p, Initial residual = 0.000101586, Final residual = 9.11745e-07, No Iterations 4
GAMG:  Solving for p, Initial residual = 8.74602e-05, Final residual = 4.84826e-07, No Iterations 5
GAMG:  Solving for p, Initial residual = 8.07893e-05, Final residual = 7.36226e-07, No Iterations 4
GAMG:  Solving for p, Initial residual = 7.03067e-05, Final residual = 7.64088e-07, No Iterations 4
GAMG:  Solving for p, Initial residual = 6.4486e-05, Final residual = 5.81146e-07, No Iterations 4
GAMG:  Solving for p, Initial residual = 5.64867e-05, Final residual = 5.86352e-07, No Iterations 4
GAMG:  Solving for p, Initial residual = 5.17012e-05, Final residual = 4.63058e-07, No Iterations 4
time step continuity errors : sum local = 1.60241e-11, global = 3.46304e-14, cumulative = 2.88658e-10
GAMG:  Solving for p, Initial residual = 0.000485496, Final residual = 4.8163e-06, No Iterations 11
GAMG:  Solving for p, Initial residual = 0.000203538, Final residual = 9.18003e-07, No Iterations 7
GAMG:  Solving for p, Initial residual = 0.000121254, Final residual = 8.74957e-07, No Iterations 7
GAMG:  Solving for p, Initial residual = 0.000111594, Final residual = 1.10183e-06, No Iterations 5
GAMG:  Solving for p, Initial residual = 9.02283e-05, Final residual = 6.16059e-07, No Iterations 6
GAMG:  Solving for p, Initial residual = 8.42433e-05, Final residual = 6.27917e-07, No Iterations 5
GAMG:  Solving for p, Initial residual = 7.16947e-05, Final residual = 5.78681e-07, No Iterations 5
GAMG:  Solving for p, Initial residual = 6.64082e-05, Final residual = 9.2265e-07, No Iterations 4
GAMG:  Solving for p, Initial residual = 5.74788e-05, Final residual = 8.14078e-07, No Iterations 4
GAMG:  Solving for p, Initial residual = 5.23796e-05, Final residual = 7.11537e-07, No Iterations 4
GAMG:  Solving for p, Initial residual = 4.59754e-05, Final residual = 5.53439e-07, No Iterations 4
GAMG:  Solving for p, Initial residual = 4.16e-05, Final residual = 5.31562e-07, No Iterations 4
GAMG:  Solving for p, Initial residual = 3.68533e-05, Final residual = 4.40117e-07, No Iterations 4
GAMG:  Solving for p, Initial residual = 3.32839e-05, Final residual = 9.7973e-07, No Iterations 3
GAMG:  Solving for p, Initial residual = 2.88326e-05, Final residual = 8.80835e-07, No Iterations 3
GAMG:  Solving for p, Initial residual = 2.53364e-05, Final residual = 7.08636e-07, No Iterations 3
time step continuity errors : sum local = 2.44986e-11, global = 7.16776e-14, cumulative = 2.88729e-10
GAMG:  Solving for p, Initial residual = 0.000255141, Final residual = 2.15315e-06, No Iterations 14
GAMG:  Solving for p, Initial residual = 0.000119639, Final residual = 5.90422e-07, No Iterations 7
GAMG:  Solving for p, Initial residual = 6.69518e-05, Final residual = 7.01143e-07, No Iterations 5
GAMG:  Solving for p, Initial residual = 5.7624e-05, Final residual = 7.92278e-07, No Iterations 4
GAMG:  Solving for p, Initial residual = 4.58973e-05, Final residual = 8.76255e-07, No Iterations 4
GAMG:  Solving for p, Initial residual = 4.28648e-05, Final residual = 6.25423e-07, No Iterations 4
GAMG:  Solving for p, Initial residual = 3.62392e-05, Final residual = 6.077e-07, No Iterations 4
GAMG:  Solving for p, Initial residual = 3.34612e-05, Final residual = 9.59531e-07, No Iterations 3
GAMG:  Solving for p, Initial residual = 2.83483e-05, Final residual = 9.2261e-07, No Iterations 3
GAMG:  Solving for p, Initial residual = 2.54997e-05, Final residual = 7.81058e-07, No Iterations 3
GAMG:  Solving for p, Initial residual = 2.1899e-05, Final residual = 6.65962e-07, No Iterations 3
GAMG:  Solving for p, Initial residual = 1.9567e-05, Final residual = 5.21991e-07, No Iterations 3
GAMG:  Solving for p, Initial residual = 1.68526e-05, Final residual = 5.49989e-07, No Iterations 3
GAMG:  Solving for p, Initial residual = 1.51531e-05, Final residual = 3.90827e-07, No Iterations 3
GAMG:  Solving for p, Initial residual = 1.30433e-05, Final residual = 3.69474e-07, No Iterations 3
GAMG:  Solving for p, Initial residual = 1.16873e-05, Final residual = 8.86123e-07, No Iterations 2
time step continuity errors : sum local = 3.06116e-11, global = -6.81105e-14, cumulative = 2.88661e-10
GAMG:  Solving for p, Initial residual = 0.000175794, Final residual = 1.5738e-06, No Iterations 14
GAMG:  Solving for p, Initial residual = 6.49443e-05, Final residual = 8.73954e-07, No Iterations 6
GAMG:  Solving for p, Initial residual = 3.23463e-05, Final residual = 8.99678e-07, No Iterations 5
GAMG:  Solving for p, Initial residual = 2.46133e-05, Final residual = 7.97041e-07, No Iterations 4
GAMG:  Solving for p, Initial residual = 1.995e-05, Final residual = 7.55253e-07, No Iterations 4
GAMG:  Solving for p, Initial residual = 1.67288e-05, Final residual = 5.94862e-07, No Iterations 3
GAMG:  Solving for p, Initial residual = 1.39868e-05, Final residual = 6.99099e-07, No Iterations 3
GAMG:  Solving for p, Initial residual = 1.21651e-05, Final residual = 4.29341e-07, No Iterations 3
GAMG:  Solving for p, Initial residual = 1.04532e-05, Final residual = 4.62001e-07, No Iterations 3
GAMG:  Solving for p, Initial residual = 9.04062e-06, Final residual = 7.98559e-07, No Iterations 2
GAMG:  Solving for p, Initial residual = 7.46434e-06, Final residual = 7.3514e-07, No Iterations 2
GAMG:  Solving for p, Initial residual = 6.09282e-06, Final residual = 5.34639e-07, No Iterations 2
GAMG:  Solving for p, Initial residual = 5.16054e-06, Final residual = 4.88525e-07, No Iterations 2
GAMG:  Solving for p, Initial residual = 4.27051e-06, Final residual = 3.73698e-07, No Iterations 2
GAMG:  Solving for p, Initial residual = 3.67742e-06, Final residual = 3.37734e-07, No Iterations 2
GAMG:  Solving for p, Initial residual = 3.08266e-06, Final residual = 8.39202e-07, No Iterations 1
time step continuity errors : sum local = 2.89732e-11, global = 3.14309e-14, cumulative = 2.88693e-10
ExecutionTime = 60.48 s  ClockTime = 60 s

forceCoeffs output:
    Cd = 42.2302
    Cl = -3.14925
    Cm = 0.0194817

Courant Number mean: 0.0236689 max: 0.270681
Time = 0.008


Assembling Vectors for non-Inertial Forces



Creating Angular Momentum Vector Components



Creating Angular Acceleration Vector Components



Assembling Vectors



Vector Assembly Complete


DILUPBiCG:  Solving for Ux, Initial residual = 0.0252176, Final residual = 0.000371827, No Iterations 1
DILUPBiCG:  Solving for Uy, Initial residual = 0.147734, Final residual = 0.000276904, No Iterations 1
GAMG:  Solving for p, Initial residual = 0.182868, Final residual = 0.00170493, No Iterations 12
GAMG:  Solving for p, Initial residual = 0.0319474, Final residual = 0.000243714, No Iterations 7
GAMG:  Solving for p, Initial residual = 0.0139073, Final residual = 0.000130599, No Iterations 9
GAMG:  Solving for p, Initial residual = 0.0108974, Final residual = 0.000105639, No Iterations 6
GAMG:  Solving for p, Initial residual = 0.00789332, Final residual = 7.82872e-05, No Iterations 6
GAMG:  Solving for p, Initial residual = 0.00676198, Final residual = 5.27354e-05, No Iterations 6
GAMG:  Solving for p, Initial residual = 0.00536991, Final residual = 4.91225e-05, No Iterations 6
GAMG:  Solving for p, Initial residual = 0.00460129, Final residual = 2.99995e-05, No Iterations 6
GAMG:  Solving for p, Initial residual = 0.00383379, Final residual = 3.40116e-05, No Iterations 6
GAMG:  Solving for p, Initial residual = 0.0033142, Final residual = 1.8425e-05, No Iterations 6
GAMG:  Solving for p, Initial residual = 0.00283018, Final residual = 2.21098e-05, No Iterations 6
GAMG:  Solving for p, Initial residual = 0.00247801, Final residual = 1.31234e-05, No Iterations 6
GAMG:  Solving for p, Initial residual = 0.00214431, Final residual = 1.28738e-05, No Iterations 6
GAMG:  Solving for p, Initial residual = 0.00189635, Final residual = 1.84601e-05, No Iterations 5
GAMG:  Solving for p, Initial residual = 0.00165451, Final residual = 1.60196e-05, No Iterations 5
GAMG:  Solving for p, Initial residual = 0.00147553, Final residual = 1.38064e-05, No Iterations 5
time step continuity errors : sum local = 3.52881e-10, global = 2.57814e-13, cumulative = 2.88951e-10
GAMG:  Solving for p, Initial residual = 0.022402, Final residual = 0.000184034, No Iterations 11
GAMG:  Solving for p, Initial residual = 0.00923754, Final residual = 6.10247e-05, No Iterations 7
GAMG:  Solving for p, Initial residual = 0.00495471, Final residual = 4.11333e-05, No Iterations 7
GAMG:  Solving for p, Initial residual = 0.00406412, Final residual = 2.6222e-05, No Iterations 5
GAMG:  Solving for p, Initial residual = 0.0028767, Final residual = 2.06276e-05, No Iterations 7
GAMG:  Solving for p, Initial residual = 0.00251664, Final residual = 1.54157e-05, No Iterations 5
GAMG:  Solving for p, Initial residual = 0.00187364, Final residual = 1.21384e-05, No Iterations 7
GAMG:  Solving for p, Initial residual = 0.00167091, Final residual = 8.87483e-06, No Iterations 5
GAMG:  Solving for p, Initial residual = 0.00128116, Final residual = 1.08936e-05, No Iterations 7
GAMG:  Solving for p, Initial residual = 0.00116754, Final residual = 6.18883e-06, No Iterations 5
GAMG:  Solving for p, Initial residual = 0.000911283, Final residual = 8.01861e-06, No Iterations 6
GAMG:  Solving for p, Initial residual = 0.000844993, Final residual = 4.70174e-06, No Iterations 5
GAMG:  Solving for p, Initial residual = 0.000670923, Final residual = 5.02674e-06, No Iterations 6
GAMG:  Solving for p, Initial residual = 0.000629363, Final residual = 3.49184e-06, No Iterations 5
GAMG:  Solving for p, Initial residual = 0.000506801, Final residual = 3.13792e-06, No Iterations 6
GAMG:  Solving for p, Initial residual = 0.000479402, Final residual = 2.59121e-06, No Iterations 5
time step continuity errors : sum local = 6.44279e-11, global = -2.1149e-14, cumulative = 2.88929e-10
GAMG:  Solving for p, Initial residual = 0.00470598, Final residual = 4.3176e-05, No Iterations 6
GAMG:  Solving for p, Initial residual = 0.00278595, Final residual = 1.53792e-05, No Iterations 6
GAMG:  Solving for p, Initial residual = 0.00171228, Final residual = 8.38024e-06, No Iterations 7
GAMG:  Solving for p, Initial residual = 0.00163959, Final residual = 1.29787e-05, No Iterations 5
GAMG:  Solving for p, Initial residual = 0.00128272, Final residual = 1.02894e-05, No Iterations 6
GAMG:  Solving for p, Initial residual = 0.00119194, Final residual = 9.41912e-06, No Iterations 5
GAMG:  Solving for p, Initial residual = 0.000980496, Final residual = 6.45692e-06, No Iterations 6
GAMG:  Solving for p, Initial residual = 0.000899182, Final residual = 7.2155e-06, No Iterations 5
GAMG:  Solving for p, Initial residual = 0.000758602, Final residual = 7.02957e-06, No Iterations 5
GAMG:  Solving for p, Initial residual = 0.000693404, Final residual = 5.42661e-06, No Iterations 5
GAMG:  Solving for p, Initial residual = 0.000593175, Final residual = 5.29289e-06, No Iterations 5
GAMG:  Solving for p, Initial residual = 0.000541355, Final residual = 4.21001e-06, No Iterations 5
GAMG:  Solving for p, Initial residual = 0.00046826, Final residual = 3.9916e-06, No Iterations 5
GAMG:  Solving for p, Initial residual = 0.000426869, Final residual = 3.28139e-06, No Iterations 5
GAMG:  Solving for p, Initial residual = 0.000372303, Final residual = 3.10084e-06, No Iterations 5
GAMG:  Solving for p, Initial residual = 0.000339443, Final residual = 2.56511e-06, No Iterations 5
time step continuity errors : sum local = 6.36938e-11, global = -2.63257e-14, cumulative = 2.88903e-10
GAMG:  Solving for p, Initial residual = 0.00178811, Final residual = 1.68937e-05, No Iterations 7
GAMG:  Solving for p, Initial residual = 0.00127513, Final residual = 1.17544e-05, No Iterations 5
GAMG:  Solving for p, Initial residual = 0.000859556, Final residual = 5.20478e-06, No Iterations 6
GAMG:  Solving for p, Initial residual = 0.000836516, Final residual = 5.17606e-06, No Iterations 5
GAMG:  Solving for p, Initial residual = 0.000665711, Final residual = 6.54924e-06, No Iterations 5
GAMG:  Solving for p, Initial residual = 0.000639691, Final residual = 3.78383e-06, No Iterations 5
GAMG:  Solving for p, Initial residual = 0.000531718, Final residual = 4.15347e-06, No Iterations 5
GAMG:  Solving for p, Initial residual = 0.000502031, Final residual = 2.75995e-06, No Iterations 5
GAMG:  Solving for p, Initial residual = 0.000428019, Final residual = 3.17941e-06, No Iterations 5
GAMG:  Solving for p, Initial residual = 0.000400577, Final residual = 2.226e-06, No Iterations 5
GAMG:  Solving for p, Initial residual = 0.000346652, Final residual = 2.26882e-06, No Iterations 5
GAMG:  Solving for p, Initial residual = 0.00032257, Final residual = 1.74993e-06, No Iterations 5
GAMG:  Solving for p, Initial residual = 0.000281992, Final residual = 1.70141e-06, No Iterations 5
GAMG:  Solving for p, Initial residual = 0.00026157, Final residual = 1.35036e-06, No Iterations 5
GAMG:  Solving for p, Initial residual = 0.0002303, Final residual = 1.30147e-06, No Iterations 5
GAMG:  Solving for p, Initial residual = 0.000213173, Final residual = 1.10743e-06, No Iterations 5
time step continuity errors : sum local = 2.75603e-11, global = -3.43255e-14, cumulative = 2.88869e-10
GAMG:  Solving for p, Initial residual = 0.000677909, Final residual = 4.73795e-06, No Iterations 11
GAMG:  Solving for p, Initial residual = 0.000492723, Final residual = 3.06828e-06, No Iterations 6
GAMG:  Solving for p, Initial residual = 0.000316938, Final residual = 2.05269e-06, No Iterations 5
GAMG:  Solving for p, Initial residual = 0.000297613, Final residual = 1.75261e-06, No Iterations 5
GAMG:  Solving for p, Initial residual = 0.000241213, Final residual = 1.38988e-06, No Iterations 5
GAMG:  Solving for p, Initial residual = 0.000226812, Final residual = 1.19278e-06, No Iterations 5
GAMG:  Solving for p, Initial residual = 0.000191029, Final residual = 1.23923e-06, No Iterations 5
GAMG:  Solving for p, Initial residual = 0.000178943, Final residual = 8.78558e-07, No Iterations 5
GAMG:  Solving for p, Initial residual = 0.000153126, Final residual = 9.35907e-07, No Iterations 5
GAMG:  Solving for p, Initial residual = 0.000142994, Final residual = 6.58539e-07, No Iterations 5
GAMG:  Solving for p, Initial residual = 0.000123586, Final residual = 7.115e-07, No Iterations 5
GAMG:  Solving for p, Initial residual = 0.000115231, Final residual = 5.1019e-07, No Iterations 5
GAMG:  Solving for p, Initial residual = 0.000100307, Final residual = 5.4182e-07, No Iterations 5
GAMG:  Solving for p, Initial residual = 9.34151e-05, Final residual = 9.60036e-07, No Iterations 4
GAMG:  Solving for p, Initial residual = 8.15016e-05, Final residual = 7.75005e-07, No Iterations 4
GAMG:  Solving for p, Initial residual = 7.53616e-05, Final residual = 6.70236e-07, No Iterations 4
time step continuity errors : sum local = 1.671e-11, global = 3.49874e-14, cumulative = 2.88904e-10
GAMG:  Solving for p, Initial residual = 0.000355408, Final residual = 2.92565e-06, No Iterations 13
GAMG:  Solving for p, Initial residual = 0.000225669, Final residual = 1.14296e-06, No Iterations 6
GAMG:  Solving for p, Initial residual = 0.000143171, Final residual = 9.8918e-07, No Iterations 7
GAMG:  Solving for p, Initial residual = 0.00013087, Final residual = 1.03439e-06, No Iterations 5
GAMG:  Solving for p, Initial residual = 0.000107513, Final residual = 6.33293e-07, No Iterations 6
GAMG:  Solving for p, Initial residual = 9.85655e-05, Final residual = 8.02376e-07, No Iterations 5
GAMG:  Solving for p, Initial residual = 8.45832e-05, Final residual = 7.84989e-07, No Iterations 5
GAMG:  Solving for p, Initial residual = 7.75512e-05, Final residual = 6.4042e-07, No Iterations 5
GAMG:  Solving for p, Initial residual = 6.75418e-05, Final residual = 6.12509e-07, No Iterations 5
GAMG:  Solving for p, Initial residual = 6.17934e-05, Final residual = 9.27803e-07, No Iterations 4
GAMG:  Solving for p, Initial residual = 5.38936e-05, Final residual = 8.6846e-07, No Iterations 4
GAMG:  Solving for p, Initial residual = 4.87386e-05, Final residual = 7.12261e-07, No Iterations 4
GAMG:  Solving for p, Initial residual = 4.28387e-05, Final residual = 6.78885e-07, No Iterations 4
GAMG:  Solving for p, Initial residual = 3.85958e-05, Final residual = 5.48639e-07, No Iterations 4
GAMG:  Solving for p, Initial residual = 3.41283e-05, Final residual = 5.30369e-07, No Iterations 4
GAMG:  Solving for p, Initial residual = 3.06616e-05, Final residual = 4.25928e-07, No Iterations 4
time step continuity errors : sum local = 1.06329e-11, global = 1.25906e-14, cumulative = 2.88916e-10
GAMG:  Solving for p, Initial residual = 0.00020358, Final residual = 1.46247e-06, No Iterations 15
GAMG:  Solving for p, Initial residual = 0.000130087, Final residual = 8.36123e-07, No Iterations 6
GAMG:  Solving for p, Initial residual = 7.80282e-05, Final residual = 8.02316e-07, No Iterations 6
GAMG:  Solving for p, Initial residual = 7.17494e-05, Final residual = 5.78564e-07, No Iterations 5
GAMG:  Solving for p, Initial residual = 5.78909e-05, Final residual = 9.32006e-07, No Iterations 4
GAMG:  Solving for p, Initial residual = 5.49497e-05, Final residual = 7.76685e-07, No Iterations 4
GAMG:  Solving for p, Initial residual = 4.58865e-05, Final residual = 7.05519e-07, No Iterations 4
GAMG:  Solving for p, Initial residual = 4.32599e-05, Final residual = 5.59977e-07, No Iterations 4
GAMG:  Solving for p, Initial residual = 3.67619e-05, Final residual = 5.05272e-07, No Iterations 4
GAMG:  Solving for p, Initial residual = 3.43727e-05, Final residual = 9.82713e-07, No Iterations 3
GAMG:  Solving for p, Initial residual = 2.89438e-05, Final residual = 9.17251e-07, No Iterations 3
GAMG:  Solving for p, Initial residual = 2.61923e-05, Final residual = 7.3119e-07, No Iterations 3
GAMG:  Solving for p, Initial residual = 2.22553e-05, Final residual = 6.88788e-07, No Iterations 3
GAMG:  Solving for p, Initial residual = 2.00122e-05, Final residual = 5.44735e-07, No Iterations 3
GAMG:  Solving for p, Initial residual = 1.71645e-05, Final residual = 5.1929e-07, No Iterations 3
GAMG:  Solving for p, Initial residual = 1.53563e-05, Final residual = 4.07355e-07, No Iterations 3
time step continuity errors : sum local = 1.01787e-11, global = -4.47703e-14, cumulative = 2.88872e-10
GAMG:  Solving for p, Initial residual = 0.000116452, Final residual = 1.07763e-06, No Iterations 16
GAMG:  Solving for p, Initial residual = 7.78404e-05, Final residual = 3.9564e-07, No Iterations 7
GAMG:  Solving for p, Initial residual = 3.6201e-05, Final residual = 9.49191e-07, No Iterations 5
GAMG:  Solving for p, Initial residual = 3.44056e-05, Final residual = 6.73388e-07, No Iterations 5
GAMG:  Solving for p, Initial residual = 2.52892e-05, Final residual = 7.87987e-07, No Iterations 4
GAMG:  Solving for p, Initial residual = 2.41203e-05, Final residual = 5.17237e-07, No Iterations 4
GAMG:  Solving for p, Initial residual = 1.89134e-05, Final residual = 8.30786e-07, No Iterations 3
GAMG:  Solving for p, Initial residual = 1.79526e-05, Final residual = 8.09714e-07, No Iterations 3
GAMG:  Solving for p, Initial residual = 1.43186e-05, Final residual = 5.75491e-07, No Iterations 3
GAMG:  Solving for p, Initial residual = 1.3351e-05, Final residual = 5.55298e-07, No Iterations 3
GAMG:  Solving for p, Initial residual = 1.0841e-05, Final residual = 3.96108e-07, No Iterations 3
GAMG:  Solving for p, Initial residual = 1.00332e-05, Final residual = 9.2995e-07, No Iterations 2
GAMG:  Solving for p, Initial residual = 7.66783e-06, Final residual = 6.78644e-07, No Iterations 2
GAMG:  Solving for p, Initial residual = 6.61104e-06, Final residual = 6.03275e-07, No Iterations 2
GAMG:  Solving for p, Initial residual = 5.17972e-06, Final residual = 4.46158e-07, No Iterations 2
GAMG:  Solving for p, Initial residual = 4.50907e-06, Final residual = 4.03628e-07, No Iterations 2
time step continuity errors : sum local = 1.00934e-11, global = -6.16877e-14, cumulative = 2.8881e-10
GAMG:  Solving for p, Initial residual = 7.58213e-05, Final residual = 9.98664e-07, No Iterations 15
GAMG:  Solving for p, Initial residual = 5.21958e-05, Final residual = 5.45586e-07, No Iterations 6
GAMG:  Solving for p, Initial residual = 2.30851e-05, Final residual = 7.27501e-07, No Iterations 5
GAMG:  Solving for p, Initial residual = 2.16286e-05, Final residual = 5.86625e-07, No Iterations 4
GAMG:  Solving for p, Initial residual = 1.57088e-05, Final residual = 9.37983e-07, No Iterations 3
GAMG:  Solving for p, Initial residual = 1.531e-05, Final residual = 7.02112e-07, No Iterations 3
GAMG:  Solving for p, Initial residual = 1.18822e-05, Final residual = 5.93488e-07, No Iterations 3
GAMG:  Solving for p, Initial residual = 1.12175e-05, Final residual = 4.59899e-07, No Iterations 3
GAMG:  Solving for p, Initial residual = 9.08183e-06, Final residual = 9.16723e-07, No Iterations 2
GAMG:  Solving for p, Initial residual = 7.90125e-06, Final residual = 7.97972e-07, No Iterations 2
GAMG:  Solving for p, Initial residual = 6.29146e-06, Final residual = 6.19859e-07, No Iterations 2
GAMG:  Solving for p, Initial residual = 5.45093e-06, Final residual = 5.45527e-07, No Iterations 2
GAMG:  Solving for p, Initial residual = 4.53863e-06, Final residual = 4.4076e-07, No Iterations 2
GAMG:  Solving for p, Initial residual = 3.94336e-06, Final residual = 3.90021e-07, No Iterations 2
GAMG:  Solving for p, Initial residual = 3.39419e-06, Final residual = 9.65895e-07, No Iterations 1
GAMG:  Solving for p, Initial residual = 2.77413e-06, Final residual = 8.2631e-07, No Iterations 1
time step continuity errors : sum local = 2.06767e-11, global = -6.8896e-14, cumulative = 2.88741e-10
GAMG:  Solving for p, Initial residual = 5.56602e-05, Final residual = 8.38636e-07, No Iterations 15
GAMG:  Solving for p, Initial residual = 3.85782e-05, Final residual = 5.63432e-07, No Iterations 6
GAMG:  Solving for p, Initial residual = 1.64308e-05, Final residual = 5.88523e-07, No Iterations 5
GAMG:  Solving for p, Initial residual = 1.42436e-05, Final residual = 5.66808e-07, No Iterations 4
GAMG:  Solving for p, Initial residual = 1.03458e-05, Final residual = 9.29908e-07, No Iterations 3
GAMG:  Solving for p, Initial residual = 9.7059e-06, Final residual = 6.08899e-07, No Iterations 3
GAMG:  Solving for p, Initial residual = 7.40539e-06, Final residual = 5.18602e-07, No Iterations 3
GAMG:  Solving for p, Initial residual = 6.87099e-06, Final residual = 8.57912e-07, No Iterations 2
GAMG:  Solving for p, Initial residual = 5.45383e-06, Final residual = 7.03387e-07, No Iterations 2
GAMG:  Solving for p, Initial residual = 4.92562e-06, Final residual = 6.12529e-07, No Iterations 2
GAMG:  Solving for p, Initial residual = 4.12405e-06, Final residual = 5.14586e-07, No Iterations 2
GAMG:  Solving for p, Initial residual = 3.68481e-06, Final residual = 4.84218e-07, No Iterations 2
GAMG:  Solving for p, Initial residual = 3.24077e-06, Final residual = 3.83684e-07, No Iterations 2
GAMG:  Solving for p, Initial residual = 2.85114e-06, Final residual = 9.0102e-07, No Iterations 1
GAMG:  Solving for p, Initial residual = 2.53516e-06, Final residual = 8.25304e-07, No Iterations 1
GAMG:  Solving for p, Initial residual = 2.3054e-06, Final residual = 7.57405e-07, No Iterations 1
time step continuity errors : sum local = 1.8963e-11, global = -3.09253e-14, cumulative = 2.8871e-10
ExecutionTime = 79.9 s  ClockTime = 80 s

forceCoeffs output:
    Cd = 25.5544
    Cl = -3.14729
    Cm = 0.0160816

Courant Number mean: 0.0236768 max: 0.27303
Time = 0.01


Assembling Vectors for non-Inertial Forces



Creating Angular Momentum Vector Components



Creating Angular Acceleration Vector Components



Assembling Vectors



Vector Assembly Complete


DILUPBiCG:  Solving for Ux, Initial residual = 0.0217039, Final residual = 0.000237094, No Iterations 1
DILUPBiCG:  Solving for Uy, Initial residual = 0.106823, Final residual = 0.00011799, No Iterations 1
GAMG:  Solving for p, Initial residual = 0.12222, Final residual = 0.00104407, No Iterations 9
GAMG:  Solving for p, Initial residual = 0.0118105, Final residual = 7.49747e-05, No Iterations 9
GAMG:  Solving for p, Initial residual = 0.00451105, Final residual = 3.92261e-05, No Iterations 7
GAMG:  Solving for p, Initial residual = 0.00359463, Final residual = 1.94044e-05, No Iterations 6
GAMG:  Solving for p, Initial residual = 0.00242987, Final residual = 1.72516e-05, No Iterations 7
GAMG:  Solving for p, Initial residual = 0.00211454, Final residual = 2.06393e-05, No Iterations 5
GAMG:  Solving for p, Initial residual = 0.00159497, Final residual = 8.95073e-06, No Iterations 7
GAMG:  Solving for p, Initial residual = 0.00138416, Final residual = 1.21325e-05, No Iterations 5
GAMG:  Solving for p, Initial residual = 0.00110375, Final residual = 5.35168e-06, No Iterations 7
GAMG:  Solving for p, Initial residual = 0.000970473, Final residual = 8.15962e-06, No Iterations 5
GAMG:  Solving for p, Initial residual = 0.000802106, Final residual = 6.93989e-06, No Iterations 6
GAMG:  Solving for p, Initial residual = 0.000712363, Final residual = 5.87417e-06, No Iterations 5
GAMG:  Solving for p, Initial residual = 0.000602393, Final residual = 4.23637e-06, No Iterations 6
GAMG:  Solving for p, Initial residual = 0.000537938, Final residual = 4.40673e-06, No Iterations 5
GAMG:  Solving for p, Initial residual = 0.000463419, Final residual = 2.75507e-06, No Iterations 6
GAMG:  Solving for p, Initial residual = 0.000416377, Final residual = 3.33194e-06, No Iterations 5
time step continuity errors : sum local = 7.02079e-11, global = -5.38385e-15, cumulative = 2.88705e-10
GAMG:  Solving for p, Initial residual = 0.00820164, Final residual = 5.36628e-05, No Iterations 10
GAMG:  Solving for p, Initial residual = 0.00257468, Final residual = 1.2872e-05, No Iterations 7
GAMG:  Solving for p, Initial residual = 0.00131237, Final residual = 9.66683e-06, No Iterations 7
GAMG:  Solving for p, Initial residual = 0.0010536, Final residual = 8.62129e-06, No Iterations 6
GAMG:  Solving for p, Initial residual = 0.000746511, Final residual = 6.36949e-06, No Iterations 6
GAMG:  Solving for p, Initial residual = 0.000616557, Final residual = 4.22865e-06, No Iterations 6
GAMG:  Solving for p, Initial residual = 0.000471848, Final residual = 3.05134e-06, No Iterations 6
GAMG:  Solving for p, Initial residual = 0.000393146, Final residual = 3.92257e-06, No Iterations 5
GAMG:  Solving for p, Initial residual = 0.000315783, Final residual = 1.86495e-06, No Iterations 6
GAMG:  Solving for p, Initial residual = 0.000264068, Final residual = 2.45449e-06, No Iterations 5
GAMG:  Solving for p, Initial residual = 0.000219702, Final residual = 1.07324e-06, No Iterations 6
GAMG:  Solving for p, Initial residual = 0.000184085, Final residual = 1.61832e-06, No Iterations 5
GAMG:  Solving for p, Initial residual = 0.000157277, Final residual = 1.43095e-06, No Iterations 5
GAMG:  Solving for p, Initial residual = 0.000132562, Final residual = 1.19834e-06, No Iterations 5
GAMG:  Solving for p, Initial residual = 0.000115299, Final residual = 8.48114e-07, No Iterations 5
GAMG:  Solving for p, Initial residual = 9.75832e-05, Final residual = 8.44549e-07, No Iterations 5
time step continuity errors : sum local = 1.78042e-11, global = -6.32753e-14, cumulative = 2.88641e-10
GAMG:  Solving for p, Initial residual = 0.00122109, Final residual = 1.21293e-05, No Iterations 7
GAMG:  Solving for p, Initial residual = 0.000643685, Final residual = 3.79194e-06, No Iterations 6
GAMG:  Solving for p, Initial residual = 0.000409026, Final residual = 2.46387e-06, No Iterations 7
GAMG:  Solving for p, Initial residual = 0.000385962, Final residual = 3.12917e-06, No Iterations 5
GAMG:  Solving for p, Initial residual = 0.000304075, Final residual = 2.74306e-06, No Iterations 6
GAMG:  Solving for p, Initial residual = 0.000274097, Final residual = 2.15649e-06, No Iterations 5
GAMG:  Solving for p, Initial residual = 0.000231826, Final residual = 2.19852e-06, No Iterations 5
GAMG:  Solving for p, Initial residual = 0.000203851, Final residual = 1.58028e-06, No Iterations 5
GAMG:  Solving for p, Initial residual = 0.000178747, Final residual = 1.511e-06, No Iterations 5
GAMG:  Solving for p, Initial residual = 0.000156268, Final residual = 1.19475e-06, No Iterations 5
GAMG:  Solving for p, Initial residual = 0.000139234, Final residual = 1.04934e-06, No Iterations 5
GAMG:  Solving for p, Initial residual = 0.00012237, Final residual = 9.22008e-07, No Iterations 5
GAMG:  Solving for p, Initial residual = 0.000109428, Final residual = 7.55602e-07, No Iterations 5
GAMG:  Solving for p, Initial residual = 9.69033e-05, Final residual = 7.18174e-07, No Iterations 5
GAMG:  Solving for p, Initial residual = 8.67936e-05, Final residual = 5.61584e-07, No Iterations 5
GAMG:  Solving for p, Initial residual = 7.73907e-05, Final residual = 5.65554e-07, No Iterations 5
time step continuity errors : sum local = 1.19424e-11, global = -1.58243e-15, cumulative = 2.8864e-10
GAMG:  Solving for p, Initial residual = 0.000445704, Final residual = 4.28757e-06, No Iterations 9
GAMG:  Solving for p, Initial residual = 0.000249434, Final residual = 2.30722e-06, No Iterations 6
GAMG:  Solving for p, Initial residual = 0.000168628, Final residual = 1.48582e-06, No Iterations 6
GAMG:  Solving for p, Initial residual = 0.000155798, Final residual = 1.34814e-06, No Iterations 5
GAMG:  Solving for p, Initial residual = 0.000125858, Final residual = 1.06487e-06, No Iterations 5
GAMG:  Solving for p, Initial residual = 0.000116225, Final residual = 8.62122e-07, No Iterations 5
GAMG:  Solving for p, Initial residual = 9.84806e-05, Final residual = 6.59133e-07, No Iterations 5
GAMG:  Solving for p, Initial residual = 9.02806e-05, Final residual = 6.13392e-07, No Iterations 5
GAMG:  Solving for p, Initial residual = 7.83153e-05, Final residual = 9.52525e-07, No Iterations 4
GAMG:  Solving for p, Initial residual = 7.12986e-05, Final residual = 9.53444e-07, No Iterations 4
GAMG:  Solving for p, Initial residual = 6.22838e-05, Final residual = 7.28305e-07, No Iterations 4
GAMG:  Solving for p, Initial residual = 5.65912e-05, Final residual = 7.40545e-07, No Iterations 4
GAMG:  Solving for p, Initial residual = 4.98684e-05, Final residual = 5.68107e-07, No Iterations 4
GAMG:  Solving for p, Initial residual = 4.52889e-05, Final residual = 5.55969e-07, No Iterations 4
GAMG:  Solving for p, Initial residual = 4.01794e-05, Final residual = 4.46418e-07, No Iterations 4
GAMG:  Solving for p, Initial residual = 3.64647e-05, Final residual = 4.61893e-07, No Iterations 4
time step continuity errors : sum local = 9.76308e-12, global = 5.12898e-16, cumulative = 2.8864e-10
GAMG:  Solving for p, Initial residual = 0.000197457, Final residual = 1.28545e-06, No Iterations 13
GAMG:  Solving for p, Initial residual = 9.60703e-05, Final residual = 5.64314e-07, No Iterations 6
GAMG:  Solving for p, Initial residual = 5.64493e-05, Final residual = 9.7364e-07, No Iterations 5
GAMG:  Solving for p, Initial residual = 4.97437e-05, Final residual = 6.92916e-07, No Iterations 4
GAMG:  Solving for p, Initial residual = 3.93926e-05, Final residual = 7.27766e-07, No Iterations 4
GAMG:  Solving for p, Initial residual = 3.55186e-05, Final residual = 9.78596e-07, No Iterations 3
GAMG:  Solving for p, Initial residual = 2.95676e-05, Final residual = 9.84093e-07, No Iterations 3
GAMG:  Solving for p, Initial residual = 2.64717e-05, Final residual = 7.40705e-07, No Iterations 3
GAMG:  Solving for p, Initial residual = 2.25519e-05, Final residual = 6.83249e-07, No Iterations 3
GAMG:  Solving for p, Initial residual = 2.0193e-05, Final residual = 5.7628e-07, No Iterations 3
GAMG:  Solving for p, Initial residual = 1.74627e-05, Final residual = 4.89852e-07, No Iterations 3
[...]
GAMG:  Solving for p, Initial residual = 1.32113e-05, Final residual = 6.35317e-07, No Iterations 3
GAMG:  Solving for p, Initial residual = 1.14011e-05, Final residual = 5.78633e-07, No Iterations 3
GAMG:  Solving for p, Initial residual = 1.02872e-05, Final residual = 4.53182e-07, No Iterations 3
GAMG:  Solving for p, Initial residual = 9.10276e-06, Final residual = 4.46828e-07, No Iterations 3
GAMG:  Solving for p, Initial residual = 8.23223e-06, Final residual = 8.91556e-07, No Iterations 2
GAMG:  Solving for p, Initial residual = 7.32004e-06, Final residual = 8.20925e-07, No Iterations 2
GAMG:  Solving for p, Initial residual = 6.52366e-06, Final residual = 7.15302e-07, No Iterations 2
GAMG:  Solving for p, Initial residual = 5.89646e-06, Final residual = 6.5813e-07, No Iterations 2
GAMG:  Solving for p, Initial residual = 5.3052e-06, Final residual = 5.85108e-07, No Iterations 2
time step continuity errors : sum local = 8.0391e-12, global = -2.20608e-14, cumulative = 2.85634e-10
GAMG:  Solving for p, Initial residual = 5.11509e-05, Final residual = 8.19656e-07, No Iterations 13
GAMG:  Solving for p, Initial residual = 2.75412e-05, Final residual = 8.34342e-07, No Iterations 5
GAMG:  Solving for p, Initial residual = 1.4129e-05, Final residual = 9.63204e-07, No Iterations 4
GAMG:  Solving for p, Initial residual = 1.10003e-05, Final residual = 8.64902e-07, No Iterations 3
GAMG:  Solving for p, Initial residual = 8.74004e-06, Final residual = 8.61889e-07, No Iterations 3
GAMG:  Solving for p, Initial residual = 7.56603e-06, Final residual = 5.23837e-07, No Iterations 3
GAMG:  Solving for p, Initial residual = 6.25764e-06, Final residual = 9.58938e-07, No Iterations 2
GAMG:  Solving for p, Initial residual = 5.44845e-06, Final residual = 7.71947e-07, No Iterations 2
GAMG:  Solving for p, Initial residual = 4.57293e-06, Final residual = 7.06616e-07, No Iterations 2
GAMG:  Solving for p, Initial residual = 4.07388e-06, Final residual = 5.55491e-07, No Iterations 2
GAMG:  Solving for p, Initial residual = 3.45103e-06, Final residual = 4.87693e-07, No Iterations 2
GAMG:  Solving for p, Initial residual = 3.12074e-06, Final residual = 4.34559e-07, No Iterations 2
GAMG:  Solving for p, Initial residual = 2.72967e-06, Final residual = 9.21188e-07, No Iterations 1
GAMG:  Solving for p, Initial residual = 2.51028e-06, Final residual = 8.40705e-07, No Iterations 1
GAMG:  Solving for p, Initial residual = 2.28741e-06, Final residual = 7.79919e-07, No Iterations 1
GAMG:  Solving for p, Initial residual = 2.13474e-06, Final residual = 7.23399e-07, No Iterations 1
time step continuity errors : sum local = 9.94124e-12, global = -1.46306e-14, cumulative = 2.85619e-10
GAMG:  Solving for p, Initial residual = 3.49673e-05, Final residual = 9.33307e-07, No Iterations 12
GAMG:  Solving for p, Initial residual = 2.01161e-05, Final residual = 5.92221e-07, No Iterations 5
GAMG:  Solving for p, Initial residual = 8.68008e-06, Final residual = 7.39983e-07, No Iterations 4
GAMG:  Solving for p, Initial residual = 8.07904e-06, Final residual = 5.96937e-07, No Iterations 3
GAMG:  Solving for p, Initial residual = 5.0944e-06, Final residual = 6.0605e-07, No Iterations 3
GAMG:  Solving for p, Initial residual = 5.20252e-06, Final residual = 7.60995e-07, No Iterations 2
GAMG:  Solving for p, Initial residual = 3.54554e-06, Final residual = 6.68228e-07, No Iterations 2
GAMG:  Solving for p, Initial residual = 3.44572e-06, Final residual = 5.79573e-07, No Iterations 2
GAMG:  Solving for p, Initial residual = 2.64457e-06, Final residual = 4.57046e-07, No Iterations 2
GAMG:  Solving for p, Initial residual = 2.44344e-06, Final residual = 9.09233e-07, No Iterations 1
GAMG:  Solving for p, Initial residual = 2.05431e-06, Final residual = 7.91946e-07, No Iterations 1
GAMG:  Solving for p, Initial residual = 1.88187e-06, Final residual = 7.25636e-07, No Iterations 1
GAMG:  Solving for p, Initial residual = 1.70488e-06, Final residual = 6.59257e-07, No Iterations 1
GAMG:  Solving for p, Initial residual = 1.55168e-06, Final residual = 5.98935e-07, No Iterations 1
GAMG:  Solving for p, Initial residual = 1.41779e-06, Final residual = 5.45042e-07, No Iterations 1
GAMG:  Solving for p, Initial residual = 1.29289e-06, Final residual = 4.95359e-07, No Iterations 1
time step continuity errors : sum local = 6.80858e-12, global = -2.85377e-14, cumulative = 2.85591e-10
GAMG:  Solving for p, Initial residual = 2.63994e-05, Final residual = 7.919e-07, No Iterations 11
GAMG:  Solving for p, Initial residual = 1.7001e-05, Final residual = 9.35606e-07, No Iterations 4
GAMG:  Solving for p, Initial residual = 7.18748e-06, Final residual = 6.34843e-07, No Iterations 4
GAMG:  Solving for p, Initial residual = 6.58925e-06, Final residual = 5.62883e-07, No Iterations 3
GAMG:  Solving for p, Initial residual = 4.2576e-06, Final residual = 9.30382e-07, No Iterations 2
GAMG:  Solving for p, Initial residual = 4.31402e-06, Final residual = 8.17487e-07, No Iterations 2
GAMG:  Solving for p, Initial residual = 3.11567e-06, Final residual = 6.44872e-07, No Iterations 2
GAMG:  Solving for p, Initial residual = 2.92196e-06, Final residual = 5.16916e-07, No Iterations 2
GAMG:  Solving for p, Initial residual = 2.23225e-06, Final residual = 9.4232e-07, No Iterations 1
GAMG:  Solving for p, Initial residual = 2.10071e-06, Final residual = 8.67741e-07, No Iterations 1
GAMG:  Solving for p, Initial residual = 1.84959e-06, Final residual = 7.75767e-07, No Iterations 1
GAMG:  Solving for p, Initial residual = 1.68453e-06, Final residual = 7.05308e-07, No Iterations 1
GAMG:  Solving for p, Initial residual = 1.53286e-06, Final residual = 6.37362e-07, No Iterations 1
GAMG:  Solving for p, Initial residual = 1.39605e-06, Final residual = 5.77411e-07, No Iterations 1
GAMG:  Solving for p, Initial residual = 1.2755e-06, Final residual = 5.23351e-07, No Iterations 1
GAMG:  Solving for p, Initial residual = 1.16624e-06, Final residual = 4.75341e-07, No Iterations 1
time step continuity errors : sum local = 6.53441e-12, global = -3.0169e-14, cumulative = 2.85561e-10
GAMG:  Solving for p, Initial residual = 2.14926e-05, Final residual = 9.58349e-07, No Iterations 10
GAMG:  Solving for p, Initial residual = 1.3982e-05, Final residual = 7.88972e-07, No Iterations 4
GAMG:  Solving for p, Initial residual = 6.0465e-06, Final residual = 5.62231e-07, No Iterations 4
GAMG:  Solving for p, Initial residual = 5.65919e-06, Final residual = 8.74551e-07, No Iterations 2
GAMG:  Solving for p, Initial residual = 3.67058e-06, Final residual = 8.22398e-07, No Iterations 2
GAMG:  Solving for p, Initial residual = 3.71488e-06, Final residual = 6.55807e-07, No Iterations 2
GAMG:  Solving for p, Initial residual = 2.78534e-06, Final residual = 5.81543e-07, No Iterations 2
GAMG:  Solving for p, Initial residual = 2.61707e-06, Final residual = 4.55003e-07, No Iterations 2
GAMG:  Solving for p, Initial residual = 2.09669e-06, Final residual = 8.65039e-07, No Iterations 1
GAMG:  Solving for p, Initial residual = 1.96401e-06, Final residual = 8.01679e-07, No Iterations 1
GAMG:  Solving for p, Initial residual = 1.77616e-06, Final residual = 7.2708e-07, No Iterations 1
GAMG:  Solving for p, Initial residual = 1.62668e-06, Final residual = 6.65116e-07, No Iterations 1
GAMG:  Solving for p, Initial residual = 1.49547e-06, Final residual = 6.05719e-07, No Iterations 1
GAMG:  Solving for p, Initial residual = 1.37191e-06, Final residual = 5.52494e-07, No Iterations 1
GAMG:  Solving for p, Initial residual = 1.26267e-06, Final residual = 5.03992e-07, No Iterations 1
GAMG:  Solving for p, Initial residual = 1.16177e-06, Final residual = 4.60517e-07, No Iterations 1
time step continuity errors : sum local = 6.33146e-12, global = -2.99892e-14, cumulative = 2.85531e-10
GAMG:  Solving for p, Initial residual = 1.77102e-05, Final residual = 8.57254e-07, No Iterations 9
GAMG:  Solving for p, Initial residual = 1.20622e-05, Final residual = 7.24593e-07, No Iterations 4
GAMG:  Solving for p, Initial residual = 5.22518e-06, Final residual = 5.06257e-07, No Iterations 4
GAMG:  Solving for p, Initial residual = 4.79861e-06, Final residual = 7.84072e-07, No Iterations 2
GAMG:  Solving for p, Initial residual = 3.20057e-06, Final residual = 7.30939e-07, No Iterations 2
GAMG:  Solving for p, Initial residual = 3.2139e-06, Final residual = 5.8179e-07, No Iterations 2
GAMG:  Solving for p, Initial residual = 2.44424e-06, Final residual = 5.15661e-07, No Iterations 2
GAMG:  Solving for p, Initial residual = 2.28418e-06, Final residual = 9.1133e-07, No Iterations 1
GAMG:  Solving for p, Initial residual = 1.95942e-06, Final residual = 8.16976e-07, No Iterations 1
GAMG:  Solving for p, Initial residual = 1.78133e-06, Final residual = 7.42933e-07, No Iterations 1
GAMG:  Solving for p, Initial residual = 1.6381e-06, Final residual = 6.76309e-07, No Iterations 1
GAMG:  Solving for p, Initial residual = 1.49202e-06, Final residual = 6.13246e-07, No Iterations 1
GAMG:  Solving for p, Initial residual = 1.37346e-06, Final residual = 5.57984e-07, No Iterations 1
GAMG:  Solving for p, Initial residual = 1.25793e-06, Final residual = 5.07358e-07, No Iterations 1
GAMG:  Solving for p, Initial residual = 1.15868e-06, Final residual = 4.62724e-07, No Iterations 1
GAMG:  Solving for p, Initial residual = 1.06589e-06, Final residual = 4.22326e-07, No Iterations 1
time step continuity errors : sum local = 5.80704e-12, global = -2.74213e-14, cumulative = 2.85503e-10
GAMG:  Solving for p, Initial residual = 1.46984e-05, Final residual = 7.12554e-07, No Iterations 9
GAMG:  Solving for p, Initial residual = 9.91156e-06, Final residual = 6.0798e-07, No Iterations 4
GAMG:  Solving for p, Initial residual = 4.35799e-06, Final residual = 8.00288e-07, No Iterations 3
GAMG:  Solving for p, Initial residual = 4.37276e-06, Final residual = 7.24098e-07, No Iterations 2
GAMG:  Solving for p, Initial residual = 2.76934e-06, Final residual = 6.41057e-07, No Iterations 2
GAMG:  Solving for p, Initial residual = 2.74774e-06, Final residual = 4.98773e-07, No Iterations 2
GAMG:  Solving for p, Initial residual = 2.06962e-06, Final residual = 8.94609e-07, No Iterations 1
GAMG:  Solving for p, Initial residual = 1.96201e-06, Final residual = 8.20373e-07, No Iterations 1
GAMG:  Solving for p, Initial residual = 1.72891e-06, Final residual = 7.35759e-07, No Iterations 1
GAMG:  Solving for p, Initial residual = 1.57669e-06, Final residual = 6.6756e-07, No Iterations 1
GAMG:  Solving for p, Initial residual = 1.43966e-06, Final residual = 6.02801e-07, No Iterations 1
GAMG:  Solving for p, Initial residual = 1.31332e-06, Final residual = 5.45751e-07, No Iterations 1
GAMG:  Solving for p, Initial residual = 1.20303e-06, Final residual = 5.33963e-07, No Iterations 1
GAMG:  Solving for p, Initial residual = 1.14173e-06, Final residual = 4.50733e-07, No Iterations 1
GAMG:  Solving for p, Initial residual = 1.01485e-06, Final residual = 4.09484e-07, No Iterations 1
GAMG:  Solving for p, Initial residual = 9.3271e-07, Final residual = 9.3271e-07, No Iterations 0
time step continuity errors : sum local = 1.28261e-11, global = -1.49307e-14, cumulative = 2.85488e-10
ExecutionTime = 596.43 s  ClockTime = 608 s

forceCoeffs output:
    Cd = 7.51059
    Cl = -2.47137
    Cm = -0.0286805

Courant Number mean: 0.0239045 max: 0.274097
Time = 0.068


Assembling Vectors for non-Inertial Forces



Creating Angular Momentum Vector Components



Creating Angular Acceleration Vector Components



Assembling Vectors



Vector Assembly Complete


DILUPBiCG:  Solving for Ux, Initial residual = 0.00706955, Final residual = 1.71384e-05, No Iterations 1
DILUPBiCG:  Solving for Uy, Initial residual = 0.0156598, Final residual = 4.28937e-06, No Iterations 1
GAMG:  Solving for p, Initial residual = 0.0100624, Final residual = 9.91131e-05, No Iterations 6
GAMG:  Solving for p, Initial residual = 0.000722041, Final residual = 6.40014e-06, No Iterations 8
GAMG:  Solving for p, Initial residual = 0.000339719, Final residual = 3.01145e-06, No Iterations 10
GAMG:  Solving for p, Initial residual = 0.000279458, Final residual = 1.63559e-06, No Iterations 7
GAMG:  Solving for p, Initial residual = 0.000211595, Final residual = 1.35811e-06, No Iterations 8
GAMG:  Solving for p, Initial residual = 0.000187849, Final residual = 1.786e-06, No Iterations 6
GAMG:  Solving for p, Initial residual = 0.000154845, Final residual = 8.70656e-07, No Iterations 7
GAMG:  Solving for p, Initial residual = 0.000136425, Final residual = 6.00323e-07, No Iterations 7
GAMG:  Solving for p, Initial residual = 0.000118372, Final residual = 1.08871e-06, No Iterations 6
GAMG:  Solving for p, Initial residual = 0.000103654, Final residual = 9.24947e-07, No Iterations 6
GAMG:  Solving for p, Initial residual = 9.30976e-05, Final residual = 8.11842e-07, No Iterations 5
GAMG:  Solving for p, Initial residual = 8.07846e-05, Final residual = 6.3402e-07, No Iterations 6
GAMG:  Solving for p, Initial residual = 7.4198e-05, Final residual = 5.40043e-07, No Iterations 5
GAMG:  Solving for p, Initial residual = 6.39609e-05, Final residual = 8.44095e-07, No Iterations 5
GAMG:  Solving for p, Initial residual = 5.96625e-05, Final residual = 9.11169e-07, No Iterations 4
GAMG:  Solving for p, Initial residual = 5.10853e-05, Final residual = 6.29164e-07, No Iterations 5
time step continuity errors : sum local = 8.62844e-12, global = 1.71669e-14, cumulative = 2.85505e-10
GAMG:  Solving for p, Initial residual = 0.00064362, Final residual = 5.59575e-06, No Iterations 11
GAMG:  Solving for p, Initial residual = 0.000325623, Final residual = 3.13414e-06, No Iterations 7
GAMG:  Solving for p, Initial residual = 0.00021629, Final residual = 1.77831e-06, No Iterations 9
GAMG:  Solving for p, Initial residual = 0.000178484, Final residual = 1.41579e-06, No Iterations 7
GAMG:  Solving for p, Initial residual = 0.00013155, Final residual = 7.9493e-07, No Iterations 8
GAMG:  Solving for p, Initial residual = 0.000117675, Final residual = 7.33371e-07, No Iterations 7
GAMG:  Solving for p, Initial residual = 9.1694e-05, Final residual = 7.79394e-07, No Iterations 6
GAMG:  Solving for p, Initial residual = 8.37783e-05, Final residual = 9.61851e-07, No Iterations 6
GAMG:  Solving for p, Initial residual = 6.77366e-05, Final residual = 7.91185e-07, No Iterations 5
GAMG:  Solving for p, Initial residual = 6.20184e-05, Final residual = 6.87678e-07, No Iterations 6
GAMG:  Solving for p, Initial residual = 5.13209e-05, Final residual = 8.26561e-07, No Iterations 4
GAMG:  Solving for p, Initial residual = 4.69047e-05, Final residual = 8.66325e-07, No Iterations 5
GAMG:  Solving for p, Initial residual = 3.96052e-05, Final residual = 6.52867e-07, No Iterations 4
GAMG:  Solving for p, Initial residual = 3.59218e-05, Final residual = 5.87394e-07, No Iterations 5
GAMG:  Solving for p, Initial residual = 3.08075e-05, Final residual = 5.07525e-07, No Iterations 4
GAMG:  Solving for p, Initial residual = 2.77846e-05, Final residual = 8.14121e-07, No Iterations 4
time step continuity errors : sum local = 1.11699e-11, global = -7.71655e-15, cumulative = 2.85498e-10
GAMG:  Solving for p, Initial residual = 0.000177224, Final residual = 1.37218e-06, No Iterations 13
GAMG:  Solving for p, Initial residual = 0.000110237, Final residual = 9.69386e-07, No Iterations 7
GAMG:  Solving for p, Initial residual = 7.823e-05, Final residual = 8.24298e-07, No Iterations 7
GAMG:  Solving for p, Initial residual = 6.75201e-05, Final residual = 6.6241e-07, No Iterations 6
GAMG:  Solving for p, Initial residual = 5.87114e-05, Final residual = 7.52144e-07, No Iterations 6
GAMG:  Solving for p, Initial residual = 5.15909e-05, Final residual = 7.4333e-07, No Iterations 5
GAMG:  Solving for p, Initial residual = 4.63742e-05, Final residual = 9.11178e-07, No Iterations 4
GAMG:  Solving for p, Initial residual = 4.05894e-05, Final residual = 5.11778e-07, No Iterations 5
GAMG:  Solving for p, Initial residual = 3.71731e-05, Final residual = 6.67157e-07, No Iterations 4
GAMG:  Solving for p, Initial residual = 3.23247e-05, Final residual = 7.54246e-07, No Iterations 4
GAMG:  Solving for p, Initial residual = 2.98481e-05, Final residual = 4.92918e-07, No Iterations 4
GAMG:  Solving for p, Initial residual = 2.57838e-05, Final residual = 5.72307e-07, No Iterations 4
GAMG:  Solving for p, Initial residual = 2.40156e-05, Final residual = 9.03601e-07, No Iterations 3
GAMG:  Solving for p, Initial residual = 2.0528e-05, Final residual = 9.88485e-07, No Iterations 3
GAMG:  Solving for p, Initial residual = 1.87975e-05, Final residual = 7.08868e-07, No Iterations 3
GAMG:  Solving for p, Initial residual = 1.60744e-05, Final residual = 7.5849e-07, No Iterations 3
time step continuity errors : sum local = 1.04116e-11, global = -1.07114e-15, cumulative = 2.85497e-10
GAMG:  Solving for p, Initial residual = 8.69704e-05, Final residual = 9.38743e-07, No Iterations 14
GAMG:  Solving for p, Initial residual = 4.67245e-05, Final residual = 5.88126e-07, No Iterations 6
GAMG:  Solving for p, Initial residual = 2.75808e-05, Final residual = 4.97809e-07, No Iterations 6
GAMG:  Solving for p, Initial residual = 2.34456e-05, Final residual = 6.9116e-07, No Iterations 4
GAMG:  Solving for p, Initial residual = 1.88102e-05, Final residual = 7.08656e-07, No Iterations 4
GAMG:  Solving for p, Initial residual = 1.7062e-05, Final residual = 8.24978e-07, No Iterations 3
GAMG:  Solving for p, Initial residual = 1.41837e-05, Final residual = 8.20624e-07, No Iterations 3
GAMG:  Solving for p, Initial residual = 1.285e-05, Final residual = 6.19047e-07, No Iterations 3
GAMG:  Solving for p, Initial residual = 1.11039e-05, Final residual = 5.66425e-07, No Iterations 3
GAMG:  Solving for p, Initial residual = 1.00166e-05, Final residual = 4.46415e-07, No Iterations 3
GAMG:  Solving for p, Initial residual = 8.8744e-06, Final residual = 4.38266e-07, No Iterations 3
GAMG:  Solving for p, Initial residual = 8.02449e-06, Final residual = 8.69018e-07, No Iterations 2
GAMG:  Solving for p, Initial residual = 7.14281e-06, Final residual = 8.03339e-07, No Iterations 2
GAMG:  Solving for p, Initial residual = 6.37766e-06, Final residual = 7.003e-07, No Iterations 2
GAMG:  Solving for p, Initial residual = 5.76667e-06, Final residual = 6.45766e-07, No Iterations 2
GAMG:  Solving for p, Initial residual = 5.19482e-06, Final residual = 5.73627e-07, No Iterations 2
time step continuity errors : sum local = 7.87651e-12, global = -2.21706e-14, cumulative = 2.85474e-10
GAMG:  Solving for p, Initial residual = 5.02615e-05, Final residual = 8.11087e-07, No Iterations 13
GAMG:  Solving for p, Initial residual = 2.71061e-05, Final residual = 8.21353e-07, No Iterations 5
GAMG:  Solving for p, Initial residual = 1.38291e-05, Final residual = 9.48338e-07, No Iterations 4
GAMG:  Solving for p, Initial residual = 1.07821e-05, Final residual = 8.53331e-07, No Iterations 3
GAMG:  Solving for p, Initial residual = 8.52646e-06, Final residual = 8.53143e-07, No Iterations 3
GAMG:  Solving for p, Initial residual = 7.38838e-06, Final residual = 5.13687e-07, No Iterations 3
GAMG:  Solving for p, Initial residual = 6.09026e-06, Final residual = 9.32736e-07, No Iterations 2
GAMG:  Solving for p, Initial residual = 5.30891e-06, Final residual = 7.55054e-07, No Iterations 2
GAMG:  Solving for p, Initial residual = 4.45818e-06, Final residual = 6.9103e-07, No Iterations 2
GAMG:  Solving for p, Initial residual = 3.97793e-06, Final residual = 5.42215e-07, No Iterations 2
GAMG:  Solving for p, Initial residual = 3.3703e-06, Final residual = 4.77669e-07, No Iterations 2
GAMG:  Solving for p, Initial residual = 3.05186e-06, Final residual = 4.25835e-07, No Iterations 2
GAMG:  Solving for p, Initial residual = 2.67187e-06, Final residual = 9.00677e-07, No Iterations 1
GAMG:  Solving for p, Initial residual = 2.45932e-06, Final residual